26
csq
 V   0.5   14.142931   11.545700
 V    0.000000   42.428794   11.545700
 V   -4.082713   35.357329   11.545700
 V   28.578989   35.357329   11.545700
 V    4.082713   35.357329   11.545700
 V    4.082713   21.214397   11.545700
 V   36.744414   21.214397   11.545700
 V   32.661701   14.142931   11.545700
 V   16.330851   42.428794   11.545700
 V   28.578989   21.214397   11.545700
Er   24.496276   14.142931    5.772850
Er   24.496276   14.142931   17.318550
Er    8.165425   42.428794    5.772850
Er    8.165425   42.428794   17.318550
Er    8.165425   14.142931    5.772850
Er    8.165425   14.142931   17.318550
Er   -8.165425   42.428794    5.772850
Er   -8.165425   42.428794   17.318550
Er   40.827127   14.142931    5.772850
Er   40.827127   14.142931   17.318550
Er   24.496276   42.428794    5.772850
Er   24.496276   42.428794   17.318550
Er    0.000000   28.285863    5.772850
Er    0.000000   28.285863   17.318550
Er   32.661701   28.285863    5.772850
Er   32.661701   28.285863   17.318550
