85
19edge
N1          52.28   52.75   47.24 
C2          53.07   53.78   46.85 
C3          53.12   51.78   47.70 
C4          54.41   53.53   47.33 
C5          54.43   52.27   47.86 
N6          50.36   54.10   45.75 
C7          51.48   54.84   45.42 
C8          49.37   54.46   44.84 
C9          49.83   55.56   44.05 
C10         51.15   55.78   44.35 
N11         48.42   52.35   46.71 
C12         47.65   53.11   45.87 
C13         47.56   51.64   47.53 
C14         46.23   52.89   46.12 
C15         46.19   51.98   47.13 
N16         50.37   50.98   48.05 
C17         51.46   50.19   48.29 
C18         49.30   50.36   48.64 
C19         49.77   49.21   49.34 
C20         51.10   49.06   49.12 
C21         52.79   54.71   45.91 
C22         52.76   50.50   47.98 
C23         47.95   50.73   48.50 
C24         48.10   53.93   44.81 
H25         55.28   54.13   47.15 
H26         55.25   51.71   48.23 
H27         49.21   56.08   43.31 
H28         51.84   56.51   43.95 
H29         45.42   53.32   45.56 
H30         45.30   51.60   47.61 
H31         49.12   48.56   49.86 
H32         51.76   48.26   49.41 
Co33        50.35   52.55   46.93 
C34         53.55   49.58   47.14 
C35         53.31   49.41   45.79 
C36         54.20   48.77   44.94 
C37         55.44   48.32   45.43 
C38         55.68   48.39   46.81 
C39         54.76   49.01   47.65 
H40         52.34   49.75   45.39 
H41         53.99   48.68   43.88 
H42         56.62   47.98   47.18 
H43         54.99   49.04   48.71 
C44         56.34   54.84   43.37 
C45         55.27   53.96   43.09 
C46         54.07   53.99   43.84 
C47         53.91   54.86   44.95 
C48         54.96   55.78   45.20 
C49         56.17   55.76   44.44 
H50         55.36   53.34   42.23 
H51         53.30   53.29   43.53 
H52         54.89   56.49   46.00 
H53         56.98   56.44   44.66 
C54         44.73   49.39   51.12 
C55         44.74   49.12   49.74 
C56         45.81   49.48   48.94 
C57         46.89   50.16   49.46 
C58         46.94   50.35   50.87 
C59         45.88   49.96   51.71 
H60         43.85   48.63   49.31 
H61         45.76   49.25   47.89 
H62         47.79   50.83   51.36 
H63         45.91   50.28   52.76 
C64         45.91   53.81   41.09 
C65         45.85   54.95   41.93 
C66         46.56   55.00   43.13 
C67         47.27   53.87   43.59 
C68         47.27   52.70   42.82 
C69         46.60   52.69   41.59 
H70         45.32   55.85   41.58 
H71         46.48   55.92   43.69 
H72         47.84   51.84   43.17 
H73         46.66   51.81   40.93 
C74         57.68   54.75   42.55 
O75         58.04   53.60   42.18 
O76         58.47   55.71   42.78 
C77         56.55   47.77   44.46 
O78         56.35   47.75   43.24 
O79         57.70   48.08   44.84 
C80         43.46   49.12   51.90 
O81         42.38   49.51   51.35 
O82         43.49   49.00   53.20 
C83         45.17   53.79   39.71 
O84         44.20   54.60   39.57 
O85         45.18   52.75   39.00 