1176
generated by MOF_BUILD
N       0.788   0.996   0.304
N       0.844   0.993   0.248
N       0.796   0.996   0.191
N       0.740   0.999   0.247
C       0.817   0.994   0.324
C       0.757   0.997   0.324
C       0.827   0.995   0.170
C       0.767   0.998   0.169
C       0.864   0.992   0.276
C       0.868   0.992   0.219
C       0.717   1.000   0.274
C       0.720   1.000   0.217
C       0.802   0.994   0.361
C       0.767   0.996   0.361
C       0.818   0.996   0.135
C       0.781   0.998   0.134
C       0.902   0.990   0.267
C       0.903   0.990   0.232
C       0.680   1.002   0.265
C       0.683   1.002   0.230
C       0.852   0.992   0.315
C       0.723   0.999   0.313
C       0.730   1.000   0.182
C       0.862   0.993   0.184
H       0.817   0.993   0.385
H       0.749   0.997   0.384
H       0.836   0.995   0.111
H       0.766   0.999   0.111
H       0.924   0.989   0.284
H       0.928   0.989   0.216
H       0.656   1.003   0.282
H       0.661   1.003   0.213
H       0.790   0.996   0.277
H       0.794   0.996   0.218
O       0.984   0.951   0.084
O       0.960   0.986   0.044
C       0.862   0.993   0.184
O       0.984   0.951   0.084
O       0.960   0.986   0.044
C       0.961   0.969   0.071
C       0.875   0.980   0.122
C       0.886   0.987   0.156
C       0.922   0.988   0.161
C       0.947   0.982   0.133
C       0.937   0.975   0.099
C       0.900   0.975   0.094
F       0.888   0.968   0.062
H       0.847   0.980   0.117
H       0.975   0.983   0.138
F       0.934   0.994   0.193
O       0.955   0.904   0.442
O       0.934   0.939   0.487
C       0.723   0.999   0.313
O       0.604   0.990   0.405
O       0.556   1.022   0.391
C       0.586   1.008   0.386
C       0.651   1.003   0.387
C       0.620   1.006   0.368
C       0.625   1.006   0.330
C       0.658   1.004   0.313
C       0.688   1.001   0.332
C       0.684   1.001   0.369
F       0.713   0.998   0.389
H       0.649   1.003   0.416
H       0.660   1.005   0.284
F       0.596   1.009   0.310
O       0.955   0.904   0.442
O       0.934   0.939   0.487
C       0.933   0.923   0.459
O       0.955   0.904   0.442
O       0.934   0.939   0.487
C       0.852   0.992   0.315
C       0.873   0.949   0.417
C       0.909   0.943   0.417
C       0.929   0.952   0.386
C       0.913   0.966   0.356
C       0.876   0.972   0.357
C       0.856   0.963   0.388
F       0.821   0.968   0.391
H       0.856   0.942   0.441
H       0.929   0.972   0.333
F       0.964   0.947   0.383
O       0.627   0.950   0.065
O       0.579   0.980   0.086
C       0.609   0.968   0.086
O       0.984   0.951   0.084
O       0.960   0.986   0.044
C       0.730   1.000   0.182
C       0.667   0.976   0.170
C       0.698   0.991   0.156
C       0.700   0.999   0.120
C       0.673   0.992   0.098
C       0.642   0.976   0.112
C       0.640   0.969   0.149
F       0.612   0.954   0.164
H       0.665   0.969   0.198
H       0.675   0.998   0.070
F       0.728   1.014   0.105
N       0.331   0.729   0.925
N       0.271   0.683   0.928
N       0.316   0.618   0.926
N       0.376   0.664   0.923
C       0.303   0.754   0.926
C       0.363   0.743   0.923
C       0.284   0.602   0.928
C       0.344   0.591   0.925
C       0.254   0.714   0.929
C       0.246   0.658   0.930
C       0.400   0.687   0.921
C       0.394   0.631   0.922
C       0.320   0.788   0.925
C       0.355   0.781   0.923
C       0.291   0.566   0.928
C       0.328   0.559   0.926
C       0.215   0.712   0.931
C       0.212   0.677   0.931
C       0.436   0.671   0.919
C       0.431   0.637   0.920
C       0.268   0.751   0.928
C       0.396   0.727   0.921
C       0.381   0.598   0.923
C       0.250   0.622   0.930
H       0.307   0.814   0.925
H       0.374   0.802   0.922
H       0.272   0.545   0.929
H       0.341   0.533   0.925
H       0.195   0.733   0.932
H       0.187   0.665   0.933
H       0.461   0.684   0.918
H       0.452   0.616   0.919
H       0.327   0.702   0.925
H       0.320   0.644   0.926
O       0.050   0.543   0.951
O       0.001   0.565   0.929
C       0.212   0.754   0.928
O       0.129   0.877   0.990
O       0.079   0.862   0.967
C       0.109   0.858   0.974
C       0.151   0.771   0.944
C       0.187   0.779   0.939
C       0.195   0.814   0.946
C       0.170   0.840   0.958
C       0.134   0.832   0.963
C       0.126   0.797   0.956
F       0.092   0.788   0.960
H       0.143   0.745   0.939
H       0.178   0.867   0.963
F       0.229   0.824   0.942
O       0.461   0.469   1.009
O       0.516   0.499   0.991
C       0.381   0.598   0.923
O       0.461   0.469   1.009
O       0.434   0.430   0.979
C       0.436   0.457   0.995
C       0.432   0.551   0.945
C       0.396   0.559   0.943
C       0.373   0.535   0.957
C       0.385   0.504   0.973
C       0.421   0.496   0.975
C       0.444   0.520   0.961
F       0.479   0.514   0.962
H       0.451   0.569   0.934
H       0.365   0.486   0.984
F       0.337   0.541   0.956
O       0.533   0.819   0.955
O       0.510   0.864   0.924
C       0.510   0.836   0.940
O       0.461   0.469   1.009
O       0.516   0.499   0.991
C       0.396   0.727   0.921
C       0.458   0.796   0.964
C       0.479   0.806   0.935
C       0.473   0.792   0.901
C       0.448   0.767   0.897
C       0.427   0.756   0.926
C       0.432   0.771   0.960
F       0.413   0.762   0.989
H       0.461   0.806   0.990
H       0.445   0.757   0.871
F       0.493   0.801   0.872
O       0.135   0.473   0.928
O       0.106   0.539   0.951
C       0.250   0.622   0.930
O       0.106   0.539   0.951
O       0.057   0.562   0.929
C       0.088   0.562   0.937
C       0.187   0.594   0.964
C       0.203   0.605   0.932
C       0.184   0.602   0.901
C       0.150   0.590   0.902
C       0.134   0.579   0.935
C       0.154   0.581   0.965
F       0.140   0.572   0.997
H       0.201   0.595   0.988
H       0.137   0.588   0.878
F       0.198   0.612   0.869
N       0.830   0.402   0.305
N       0.771   0.406   0.259
N       0.816   0.404   0.194
N       0.875   0.400   0.240
C       0.803   0.403   0.330
C       0.863   0.400   0.319
C       0.784   0.406   0.178
C       0.843   0.403   0.167
C       0.754   0.406   0.290
C       0.746   0.407   0.234
C       0.900   0.398   0.263
C       0.893   0.400   0.207
C       0.820   0.402   0.364
C       0.855   0.400   0.358
C       0.791   0.406   0.142
C       0.828   0.404   0.135
C       0.715   0.408   0.288
C       0.712   0.409   0.253
C       0.936   0.397   0.247
C       0.931   0.397   0.213
C       0.768   0.405   0.327
C       0.896   0.398   0.303
C       0.881   0.401   0.174
C       0.750   0.408   0.198
H       0.807   0.402   0.390
H       0.874   0.398   0.378
H       0.772   0.407   0.122
H       0.841   0.404   0.109
H       0.695   0.409   0.309
H       0.687   0.411   0.241
H       0.961   0.395   0.260
H       0.952   0.397   0.193
H       0.827   0.402   0.278
H       0.820   0.403   0.220
O       0.606   0.372   0.061
O       0.557   0.351   0.084
C       0.588   0.358   0.083
O       0.960   0.431  -0.009
O       0.934   0.401  -0.048
C       0.750   0.351   0.142
C       0.664   0.356   0.076
C       0.634   0.356   0.100
C       0.640   0.354   0.137
C       0.674   0.353   0.149
C       0.704   0.353   0.125
C       0.698   0.355   0.089
F       0.725   0.355   0.064
H       0.661   0.357   0.048
H       0.677   0.351   0.177
F       0.613   0.354   0.161
O       1.033   0.430   0.397
O       1.010   0.399   0.441
C       0.896   0.398   0.303
O       1.033   0.430   0.397
O       1.010   0.399   0.441
C       1.010   0.416   0.414
C       0.917   0.417   0.367
C       0.927   0.403   0.333
C       0.963   0.393   0.325
C       0.988   0.397   0.349
C       0.979   0.411   0.384
C       0.943   0.420   0.392
F       0.932   0.434   0.424
H       0.890   0.424   0.375
H       1.015   0.389   0.342
F       0.973   0.380   0.293
O       1.033   0.430   0.397
O       1.010   0.399   0.441
C       0.768   0.405   0.327
O       0.684   0.465   0.451
O       0.635   0.443   0.437
C       0.665   0.451   0.432
C       0.732   0.452   0.357
C       0.742   0.416   0.353
C       0.726   0.392   0.376
C       0.701   0.403   0.402
C       0.690   0.439   0.406
C       0.707   0.464   0.383
F       0.698   0.499   0.386
H       0.744   0.472   0.340
H       0.689   0.383   0.419
F       0.735   0.357   0.373
O       0.960   0.487   0.048
O       0.934   0.457   0.008
C       0.881   0.401   0.174
O       0.960   0.487   0.048
O       0.934   0.457   0.008
C       0.936   0.473   0.035
C       0.874   0.445   0.118
C       0.896   0.420   0.136
C       0.930   0.413   0.122
C       0.943   0.429   0.091
C       0.921   0.453   0.073
C       0.886   0.461   0.087
F       0.864   0.484   0.072
H       0.847   0.452   0.129
H       0.969   0.422   0.081
F       0.952   0.390   0.137
N       0.344   0.724   0.517
N       0.400   0.668   0.514
N       0.351   0.611   0.517
N       0.295   0.667   0.520
C       0.373   0.744   0.515
C       0.312   0.744   0.518
C       0.382   0.590   0.515
C       0.322   0.589   0.519
C       0.419   0.696   0.513
C       0.423   0.638   0.513
C       0.272   0.694   0.521
C       0.275   0.637   0.521
C       0.358   0.781   0.516
C       0.322   0.780   0.518
C       0.373   0.555   0.516
C       0.336   0.554   0.518
C       0.457   0.687   0.511
C       0.459   0.652   0.511
C       0.235   0.685   0.523
C       0.238   0.650   0.523
C       0.407   0.735   0.513
C       0.279   0.733   0.520
C       0.286   0.602   0.520
C       0.417   0.603   0.513
H       0.372   0.805   0.515
H       0.305   0.804   0.519
H       0.391   0.531   0.515
H       0.321   0.531   0.519
H       0.479   0.704   0.510
H       0.483   0.635   0.510
H       0.211   0.702   0.524
H       0.216   0.633   0.524
H       0.345   0.697   0.517
H       0.349   0.638   0.517
O       0.456   0.865   0.426
O       0.435   0.909   0.461
C       0.433   0.882   0.444
O       0.484   0.506   0.471
O       0.544   0.538   0.478
C       0.351   0.738   0.513
C       0.387   0.821   0.444
C       0.409   0.840   0.465
C       0.414   0.828   0.499
C       0.398   0.799   0.514
C       0.375   0.780   0.493
C       0.370   0.792   0.458
F       0.349   0.775   0.437
H       0.382   0.829   0.417
H       0.403   0.791   0.541
F       0.436   0.845   0.520
O       0.183   0.484   0.469
O       0.136   0.505   0.499
C       0.166   0.506   0.487
O       0.183   0.484   0.469
O       0.136   0.505   0.499
C       0.286   0.602   0.520
C       0.261   0.540   0.502
C       0.253   0.576   0.511
C       0.218   0.589   0.513
C       0.191   0.568   0.505
C       0.198   0.532   0.496
C       0.233   0.519   0.494
F       0.242   0.484   0.486
H       0.288   0.529   0.501
H       0.164   0.579   0.506
F       0.209   0.623   0.521
O       0.540   0.503   0.471
O       0.516   0.463   0.505
C       0.417   0.603   0.513
O       0.540   0.503   0.471
O       0.516   0.463   0.505
C       0.516   0.490   0.489
C       0.432   0.544   0.492
C       0.441   0.576   0.507
C       0.477   0.578   0.517
C       0.502   0.550   0.511
C       0.492   0.518   0.495
C       0.457   0.516   0.485
F       0.446   0.486   0.470
H       0.405   0.541   0.484
H       0.528   0.552   0.518
F       0.488   0.607   0.532
O       0.183   0.484   0.469
O       0.136   0.505   0.499
C       0.279   0.733   0.520
O       0.160   0.823   0.511
O       0.112   0.810   0.543
C       0.141   0.804   0.529
C       0.240   0.788   0.516
C       0.244   0.751   0.523
C       0.214   0.733   0.532
C       0.180   0.750   0.534
C       0.176   0.787   0.527
C       0.206   0.805   0.518
F       0.204   0.840   0.511
H       0.262   0.803   0.509
H       0.158   0.735   0.541
F       0.216   0.698   0.539
N       0.970   0.243   0.749
N       0.964   0.183   0.702
N       0.965   0.131   0.759
N       0.971   0.192   0.806
C       0.969   0.260   0.717
C       0.973   0.266   0.777
C       0.962   0.107   0.731
C       0.965   0.112   0.791
C       0.965   0.208   0.678
C       0.962   0.152   0.683
C       0.973   0.221   0.825
C       0.970   0.164   0.831
C       0.972   0.298   0.726
C       0.974   0.301   0.762
C       0.961   0.074   0.746
C       0.963   0.077   0.783
C       0.962   0.196   0.641
C       0.960   0.161   0.646
C       0.975   0.215   0.863
C       0.973   0.180   0.866
C       0.967   0.248   0.684
C       0.974   0.258   0.812
C       0.968   0.129   0.825
C       0.960   0.117   0.694
H       0.972   0.320   0.708
H       0.976   0.326   0.775
H       0.959   0.049   0.731
H       0.963   0.055   0.801
H       0.961   0.211   0.617
H       0.958   0.143   0.624
H       0.977   0.234   0.885
H       0.974   0.166   0.890
H       0.969   0.216   0.751
H       0.966   0.158   0.757
O       0.992   0.025   0.952
O       1.042   0.022   0.919
C       1.012   0.031   0.926
O       0.992   0.025   0.952
O       1.042   0.022   0.919
C       0.968   0.129   0.825
C       1.015   0.089   0.900
C       1.001   0.055   0.902
C       0.976   0.047   0.877
C       0.965   0.071   0.852
C       0.979   0.105   0.850
C       1.004   0.113   0.874
F       1.018   0.145   0.874
H       1.034   0.096   0.918
H       0.946   0.064   0.834
F       0.962   0.015   0.878
O       1.045   0.355   0.528
O       1.097   0.351   0.553
C       1.066   0.346   0.551
O       1.018   0.407   0.911
O       1.067   0.403   0.877
C       1.023   0.241   0.681
C       1.031   0.329   0.616
C       1.054   0.317   0.587
C       1.066   0.281   0.587
C       1.057   0.258   0.615
C       1.035   0.271   0.644
C       1.022   0.306   0.644
F       1.001   0.320   0.671
H       1.021   0.357   0.617
H       1.067   0.231   0.614
F       1.087   0.267   0.561
O       0.962   0.414   0.914
O       1.012   0.410   0.880
C       0.974   0.258   0.812
O       0.962   0.414   0.914
O       1.012   0.410   0.880
C       0.981   0.405   0.888
C       0.986   0.362   0.831
C       0.979   0.365   0.867
C       0.971   0.334   0.887
C       0.970   0.302   0.870
C       0.976   0.298   0.833
C       0.985   0.329   0.814
F       0.991   0.328   0.778
H       0.993   0.385   0.815
H       0.963   0.279   0.886
F       0.964   0.336   0.922
O       0.992   0.025   0.952
O       1.042   0.022   0.919
C       0.960   0.117   0.694
O       0.918  -0.016   0.576
O       0.969  -0.021   0.600
C       0.939  -0.010   0.598
C       0.969   0.082   0.633
C       0.955   0.083   0.668
C       0.936   0.054   0.681
C       0.931   0.025   0.659
C       0.945   0.024   0.624
C       0.964   0.053   0.612
F       0.978   0.053   0.578
H       0.984   0.103   0.622
H       0.916   0.004   0.670
F       0.921   0.054   0.714
N       0.526   0.165   0.759
N       0.527   0.223   0.708
N       0.521   0.176   0.647
N       0.520   0.119   0.698
C       0.529   0.194   0.782
C       0.525   0.133   0.776
C       0.521   0.208   0.629
C       0.518   0.148   0.623
C       0.529   0.241   0.737
C       0.526   0.248   0.680
C       0.521   0.095   0.724
C       0.518   0.100   0.667
C       0.530   0.178   0.817
C       0.528   0.142   0.813
C       0.519   0.200   0.593
C       0.517   0.163   0.590
C       0.531   0.280   0.732
C       0.529   0.282   0.697
C       0.518   0.058   0.711
C       0.516   0.062   0.676
C       0.530   0.229   0.775
C       0.523   0.100   0.763
C       0.517   0.111   0.633
C       0.524   0.243   0.645
H       0.532   0.191   0.842
H       0.528   0.124   0.835
H       0.519   0.219   0.571
H       0.515   0.149   0.565
H       0.533   0.301   0.750
H       0.530   0.307   0.682
H       0.517   0.034   0.726
H       0.514   0.041   0.658
H       0.525   0.168   0.732
H       0.522   0.174   0.674
O       0.474  -0.005   0.500
O       0.526   0.019   0.495
C       0.495   0.017   0.505
O       0.474  -0.005   0.500
O       0.526   0.019   0.495
C       0.517   0.111   0.633
C       0.534   0.044   0.553
C       0.501   0.042   0.539
C       0.473   0.063   0.556
C       0.477   0.085   0.585
C       0.511   0.086   0.599
C       0.539   0.065   0.583
F       0.572   0.066   0.595
H       0.557   0.028   0.542
H       0.455   0.100   0.597
F       0.440   0.063   0.544
O       0.492   0.376   0.546
O       0.542   0.343   0.543
C       0.475   0.235   0.778
O       0.463   0.336   0.935
O       0.512   0.302   0.931
C       0.481   0.310   0.926
C       0.507   0.292   0.859
C       0.479   0.290   0.886
C       0.451   0.270   0.877
C       0.449   0.253   0.845
C       0.477   0.256   0.818
C       0.505   0.275   0.827
F       0.533   0.279   0.803
H       0.530   0.307   0.865
H       0.426   0.238   0.840
F       0.423   0.267   0.901
O       0.548   0.370   0.543
O       0.598   0.337   0.539
C       0.567   0.344   0.549
O       0.548   0.370   0.543
O       0.598   0.337   0.539
C       0.524   0.243   0.645
C       0.537   0.329   0.604
C       0.557   0.319   0.572
C       0.565   0.283   0.566
C       0.555   0.257   0.590
C       0.535   0.267   0.622
C       0.526   0.304   0.628
F       0.507   0.315   0.657
H       0.530   0.357   0.610
H       0.562   0.230   0.585
F       0.584   0.272   0.537
O       0.587  -0.013   0.508
O       0.526   0.019   0.495
C       0.523   0.100   0.763
O       0.545  -0.053   0.876
O       0.596  -0.028   0.873
C       0.565  -0.030   0.868
C       0.524   0.029   0.786
C       0.535   0.064   0.792
C       0.555   0.069   0.822
C       0.564   0.041   0.845
C       0.554   0.006   0.838
C       0.534   0.001   0.809
F       0.523  -0.031   0.801
H       0.509   0.024   0.763
H       0.579   0.046   0.867
F       0.566   0.101   0.830
N       0.658   0.644   0.266
N       0.657   0.692   0.205
N       0.650   0.635   0.153
N       0.651   0.587   0.214
C       0.661   0.676   0.283
C       0.657   0.616   0.288
C       0.651   0.663   0.130
C       0.647   0.603   0.135
C       0.660   0.715   0.230
C       0.656   0.711   0.173
C       0.652   0.568   0.244
C       0.648   0.563   0.187
C       0.662   0.667   0.320
C       0.660   0.631   0.323
C       0.648   0.648   0.096
C       0.646   0.612   0.100
C       0.661   0.752   0.218
C       0.659   0.748   0.183
C       0.649   0.530   0.238
C       0.647   0.528   0.203
C       0.662   0.709   0.270
C       0.655   0.581   0.281
C       0.646   0.568   0.152
C       0.654   0.700   0.140
H       0.664   0.684   0.342
H       0.661   0.617   0.348
H       0.647   0.663   0.071
H       0.644   0.593   0.078
H       0.664   0.776   0.232
H       0.660   0.770   0.165
H       0.649   0.509   0.257
H       0.644   0.503   0.189
H       0.656   0.642   0.239
H       0.652   0.637   0.180
O       0.599   0.863   0.371
O       0.548   0.839   0.376
C       0.578   0.841   0.365
O       0.628   0.483   0.418
O       0.578   0.516   0.422
C       0.606   0.712   0.269
C       0.602   0.810   0.306
C       0.586   0.807   0.340
C       0.576   0.773   0.351
C       0.582   0.743   0.329
C       0.598   0.746   0.295
C       0.608   0.780   0.284
F       0.623   0.785   0.251
H       0.609   0.836   0.296
H       0.574   0.718   0.339
F       0.561   0.768   0.383
O       0.606   0.443   0.039
O       0.557   0.477   0.043
C       0.646   0.568   0.152
O       0.606   0.443   0.039
O       0.557   0.477   0.043
C       0.587   0.469   0.048
C       0.624   0.482   0.102
C       0.603   0.495   0.075
C       0.597   0.532   0.073
C       0.610   0.555   0.097
C       0.631   0.542   0.124
C       0.637   0.505   0.126
F       0.657   0.491   0.152
H       0.629   0.454   0.105
H       0.604   0.584   0.094
F       0.577   0.547   0.047
O       0.684   0.479   0.419
O       0.634   0.512   0.423
C       0.664   0.505   0.413
O       0.684   0.479   0.419
O       0.634   0.512   0.423
C       0.655   0.581   0.281
C       0.692   0.530   0.358
C       0.662   0.524   0.380
C       0.629   0.538   0.368
C       0.627   0.556   0.336
C       0.657   0.562   0.314
C       0.690   0.548   0.326
F       0.720   0.552   0.306
H       0.718   0.520   0.365
H       0.601   0.566   0.329
F       0.599   0.534   0.388
O       0.606   0.443   0.039
O       0.557   0.477   0.043
C       0.654   0.700   0.140
O       0.679   0.820  -0.014
O       0.628   0.795  -0.010
C       0.658   0.797  -0.005
C       0.668   0.713   0.066
C       0.655   0.727   0.099
C       0.643   0.763   0.099
C       0.644   0.784   0.069
C       0.657   0.770   0.036
C       0.669   0.734   0.035
F       0.682   0.718   0.005
H       0.678   0.685   0.064
H       0.634   0.812   0.071
F       0.630   0.779   0.130
N       0.794   0.257   0.047
N       0.745   0.200   0.049
N       0.802   0.144   0.045
N       0.850   0.201   0.043
C       0.762   0.277   0.049
C       0.823   0.277   0.045
C       0.773   0.122   0.046
C       0.833   0.123   0.043
C       0.722   0.227   0.050
C       0.726   0.170   0.050
C       0.869   0.229   0.042
C       0.874   0.172   0.041
C       0.772   0.314   0.049
C       0.808   0.314   0.047
C       0.787   0.087   0.045
C       0.824   0.088   0.043
C       0.685   0.218   0.052
C       0.689   0.182   0.052
C       0.908   0.221   0.040
C       0.909   0.185   0.039
C       0.729   0.266   0.051
C       0.857   0.268   0.043
C       0.868   0.137   0.041
C       0.737   0.135   0.048
H       0.755   0.337   0.050
H       0.822   0.338   0.046
H       0.772   0.064   0.045
H       0.842   0.064   0.041
H       0.661   0.234   0.054
H       0.667   0.165   0.053
H       0.929   0.238   0.039
H       0.934   0.169   0.038
H       0.796   0.230   0.046
H       0.800   0.171   0.045
O       0.992   0.048   0.022
O       1.041   0.062   0.045
C       1.011   0.067   0.037
O       0.960  -0.014   0.044
O       0.992   0.048   0.022
C       0.868   0.137   0.041
C       0.969   0.122   0.034
C       0.974   0.085   0.038
C       0.944   0.065   0.044
C       0.910   0.082   0.044
C       0.905   0.119   0.040
C       0.935   0.138   0.035
F       0.933   0.174   0.030
H       0.992   0.138   0.030
H       0.887   0.066   0.049
F       0.946   0.030   0.048
O       0.608   0.310  -0.036
O       0.635   0.349  -0.005
C       0.633   0.322  -0.022
O       0.962   0.334  -0.072
O       0.934   0.401  -0.048
C       0.729   0.210  -0.005
C       0.689   0.300  -0.004
C       0.656   0.295  -0.018
C       0.649   0.260  -0.027
C       0.673   0.232  -0.023
C       0.706   0.237  -0.009
C       0.713   0.271   0.000
F       0.744   0.278   0.014
H       0.695   0.326   0.004
H       0.666   0.205  -0.031
F       0.618   0.253  -0.041
O       0.635  -0.046  -0.089
O       0.658  -0.090  -0.058
C       0.658  -0.062  -0.074
O       0.960  -0.071  -0.012
O       0.992  -0.009  -0.034
C       0.737   0.078  -0.008
C       0.702  -0.025  -0.025
C       0.681  -0.022  -0.055
C       0.677   0.012  -0.070
C       0.693   0.041  -0.056
C       0.714   0.038  -0.027
C       0.718   0.004  -0.012
F       0.738  -0.002   0.016
H       0.706  -0.051  -0.013
H       0.689   0.067  -0.068
F       0.657   0.018  -0.098
O       0.962   0.391  -0.016
O       1.012   0.368   0.006
C       0.857   0.268   0.043
O       0.962   0.391  -0.016
O       1.012   0.368   0.006
C       0.981   0.368  -0.001
C       0.891   0.315  -0.001
C       0.891   0.296   0.031
C       0.920   0.299   0.052
C       0.947   0.321   0.043
C       0.947   0.341   0.011
C       0.918   0.337  -0.010
F       0.916   0.355  -0.041
H       0.869   0.313  -0.018
H       0.969   0.323   0.060
F       0.922   0.282   0.083
N       0.158   0.741   0.223
N       0.152   0.690   0.166
N       0.151   0.629   0.213
N       0.157   0.680   0.271
C       0.158   0.764   0.195
C       0.161   0.758   0.255
C       0.148   0.611   0.181
C       0.151   0.605   0.241
C       0.152   0.720   0.148
C       0.148   0.663   0.142
C       0.160   0.705   0.294
C       0.157   0.649   0.290
C       0.161   0.799   0.211
C       0.163   0.795   0.246
C       0.146   0.575   0.190
C       0.148   0.572   0.227
C       0.149   0.714   0.109
C       0.147   0.679   0.107
C       0.162   0.693   0.331
C       0.160   0.658   0.327
C       0.155   0.757   0.160
C       0.162   0.745   0.289
C       0.154   0.615   0.278
C       0.147   0.628   0.147
H       0.161   0.824   0.197
H       0.165   0.817   0.264
H       0.144   0.554   0.171
H       0.148   0.547   0.241
H       0.149   0.733   0.088
H       0.145   0.665   0.082
H       0.164   0.707   0.355
H       0.160   0.639   0.349
H       0.156   0.714   0.221
H       0.153   0.656   0.216
O       0.128   0.899   0.060
O       0.078   0.903   0.093
C       0.109   0.893   0.086
O       0.050   0.519   0.021
O       0.000   0.523   0.055
C       0.099   0.760   0.160
C       0.131   0.815   0.144
C       0.101   0.794   0.141
C       0.074   0.807   0.120
C       0.077   0.839   0.102
C       0.106   0.860   0.105
C       0.133   0.847   0.126
F       0.162   0.865   0.130
H       0.152   0.806   0.160
H       0.055   0.848   0.086
F       0.045   0.789   0.116
O       0.179   0.462   0.398
O       0.128   0.465   0.373
C       0.159   0.471   0.376
O       0.179   0.462   0.398
O       0.128   0.465   0.373
C       0.154   0.615   0.278
C       0.137   0.542   0.359
C       0.157   0.511   0.348
C       0.177   0.513   0.315
C       0.176   0.543   0.295
C       0.155   0.574   0.306
C       0.136   0.572   0.339
F       0.115   0.601   0.351
H       0.121   0.542   0.384
H       0.192   0.543   0.270
F       0.197   0.485   0.303
O       0.106   0.516   0.021
O       0.057   0.520   0.055
C       0.087   0.525   0.047
O       0.106   0.516   0.021
O       0.057   0.520   0.055
C       0.147   0.628   0.147
C       0.102   0.546   0.110
C       0.103   0.552   0.073
C       0.119   0.583   0.061
C       0.133   0.607   0.084
C       0.131   0.601   0.121
C       0.115   0.570   0.133
F       0.113   0.562   0.168
H       0.090   0.523   0.121
H       0.144   0.630   0.073
F       0.121   0.590   0.026
O       0.128   0.465   0.373
O       0.064   0.487   0.403
C       0.162   0.745   0.289
O       0.155   0.846   0.441
O       0.104   0.851   0.417
C       0.134   0.840   0.419
C       0.179   0.770   0.350
C       0.155   0.770   0.323
C       0.124   0.793   0.328
C       0.118   0.815   0.357
C       0.142   0.815   0.384
C       0.172   0.792   0.380
F       0.197   0.791   0.405
H       0.203   0.753   0.348
H       0.094   0.832   0.359
F       0.100   0.794   0.303
N       0.837   0.251   0.451
N       0.778   0.205   0.454
N       0.823   0.140   0.451
N       0.882   0.186   0.448
C       0.809   0.276   0.453
C       0.869   0.265   0.449
C       0.791   0.124   0.452
C       0.850   0.113   0.449
C       0.760   0.236   0.455
C       0.753   0.180   0.455
C       0.906   0.210   0.447
C       0.900   0.153   0.447
C       0.826   0.310   0.452
C       0.861   0.304   0.450
C       0.798   0.088   0.452
C       0.835   0.081   0.449
C       0.721   0.234   0.457
C       0.718   0.199   0.457
C       0.943   0.194   0.445
C       0.937   0.159   0.444
C       0.774   0.272   0.455
C       0.902   0.249   0.447
C       0.887   0.120   0.447
C       0.757   0.144   0.454
H       0.813   0.336   0.453
H       0.880   0.324   0.449
H       0.779   0.067   0.452
H       0.848   0.055   0.448
H       0.701   0.254   0.459
H       0.693   0.187   0.458
H       0.967   0.206   0.443
H       0.959   0.139   0.443
H       0.833   0.224   0.451
H       0.826   0.166   0.451
O       0.618  -0.007   0.445
O       0.639  -0.051   0.410
C       0.640  -0.023   0.426
O       0.969  -0.056   0.447
O       0.934  -0.117   0.430
C       0.757   0.087   0.398
C       0.703  -0.002   0.398
C       0.672   0.007   0.419
C       0.668   0.042   0.432
C       0.693   0.066   0.426
C       0.725   0.057   0.406
C       0.729   0.022   0.392
F       0.758   0.011   0.372
H       0.707  -0.029   0.387
H       0.689   0.093   0.438
F       0.639   0.053   0.452
O       1.041   0.333   0.458
O       1.089   0.311   0.427
C       1.059   0.311   0.440
O       1.010   0.399   0.441
O       1.041   0.333   0.458
C       0.902   0.249   0.447
C       1.010   0.257   0.439
C       1.015   0.294   0.442
C       0.984   0.316   0.446
C       0.950   0.303   0.448
C       0.946   0.267   0.445
C       0.977   0.244   0.441
F       0.974   0.209   0.438
H       1.033   0.238   0.436
H       0.928   0.322   0.451
F       0.986   0.352   0.449
O       0.692   0.346   0.491
O       0.716   0.386   0.457
C       0.715   0.359   0.473
O       1.010   0.342   0.385
O       1.041   0.276   0.402
C       0.774   0.216   0.399
C       0.736   0.317   0.416
C       0.731   0.320   0.453
C       0.740   0.289   0.473
C       0.753   0.257   0.456
C       0.758   0.255   0.419
C       0.749   0.286   0.399
F       0.753   0.285   0.364
H       0.730   0.340   0.399
H       0.759   0.235   0.473
F       0.736   0.289   0.508
O       0.969   0.000   0.503
O       1.017   0.014   0.471
C       0.987   0.019   0.485
O       0.969   0.000   0.503
O       1.017   0.014   0.471
C       0.887   0.120   0.447
C       0.928   0.041   0.487
C       0.963   0.043   0.476
C       0.972   0.072   0.454
C       0.947   0.098   0.444
C       0.911   0.096   0.456
C       0.903   0.067   0.477
F       0.869   0.063   0.489
H       0.920   0.019   0.504
H       0.955   0.120   0.428
F       1.006   0.076   0.442
N       0.281   0.879   0.777
N       0.222   0.882   0.731
N       0.267   0.879   0.666
N       0.326   0.876   0.712
C       0.253   0.880   0.802
C       0.313   0.877   0.791
C       0.235   0.881   0.650
C       0.295   0.877   0.639
C       0.204   0.883   0.762
C       0.197   0.883   0.705
C       0.350   0.875   0.736
C       0.344   0.875   0.679
C       0.270   0.880   0.836
C       0.305   0.877   0.830
C       0.242   0.880   0.614
C       0.279   0.878   0.607
C       0.166   0.885   0.759
C       0.162   0.885   0.725
C       0.387   0.872   0.720
C       0.382   0.873   0.685
C       0.218   0.882   0.798
C       0.346   0.875   0.776
C       0.332   0.875   0.646
C       0.201   0.883   0.669
H       0.257   0.880   0.862
H       0.324   0.876   0.850
H       0.223   0.881   0.593
H       0.292   0.877   0.581
H       0.145   0.886   0.780
H       0.137   0.887   0.713
H       0.412   0.871   0.733
H       0.403   0.871   0.665
H       0.278   0.879   0.750
H       0.270   0.879   0.692
O       0.136   0.973   0.928
O       0.161   0.939   0.968
C       0.160   0.955   0.940
O       0.136   0.973   0.928
O       0.161   0.939   0.968
C       0.218   0.882   0.798
C       0.171   0.899   0.895
C       0.176   0.935   0.902
C       0.194   0.954   0.875
C       0.207   0.938   0.843
C       0.202   0.902   0.837
C       0.184   0.883   0.864
F       0.179   0.848   0.860
H       0.158   0.883   0.915
H       0.220   0.954   0.823
F       0.199   0.989   0.879
O       0.469   0.925   0.522
O       0.517   0.893   0.535
C       0.488   0.907   0.541
O       0.540   0.877   0.854
O       0.588   0.846   0.833
C       0.387   0.869   0.643
C       0.463   0.862   0.578
C       0.464   0.897   0.566
C       0.438   0.922   0.580
C       0.413   0.913   0.606
C       0.412   0.878   0.618
C       0.437   0.853   0.603
F       0.438   0.819   0.614
H       0.482   0.842   0.567
H       0.393   0.933   0.617
F       0.437   0.957   0.570
O       0.485   0.884   0.857
O       0.533   0.853   0.836
C       0.503   0.866   0.835
O       0.485   0.884   0.857
O       0.454   0.867   0.923
C       0.346   0.875   0.776
C       0.395   0.875   0.829
C       0.390   0.872   0.792
C       0.420   0.868   0.769
C       0.454   0.866   0.782
C       0.459   0.868   0.819
C       0.428   0.873   0.842
F       0.431   0.876   0.877
H       0.372   0.879   0.848
H       0.477   0.862   0.763
F       0.418   0.865   0.734
O       0.117   0.922   0.571
O       0.138   0.887   0.527
C       0.139   0.904   0.555
O       0.192   0.967   0.925
O       0.132   0.960   0.893
C       0.257   0.876   0.666
C       0.208   0.898   0.575
C       0.172   0.896   0.586
C       0.163   0.889   0.621
C       0.188   0.882   0.646
C       0.224   0.884   0.636
C       0.233   0.892   0.600
F       0.267   0.893   0.588
H       0.216   0.903   0.548
H       0.180   0.877   0.673
F       0.129   0.887   0.633
N       0.293   0.470   0.780
N       0.349   0.466   0.724
N       0.301   0.469   0.667
N       0.245   0.472   0.723
C       0.322   0.468   0.800
C       0.262   0.472   0.800
C       0.333   0.467   0.646
C       0.273   0.470   0.645
C       0.369   0.465   0.752
C       0.373   0.465   0.695
C       0.222   0.474   0.750
C       0.225   0.473   0.693
C       0.307   0.469   0.837
C       0.272   0.471   0.836
C       0.324   0.467   0.611
C       0.287   0.469   0.610
C       0.407   0.463   0.744
C       0.408   0.463   0.708
C       0.185   0.476   0.740
C       0.188   0.475   0.705
C       0.357   0.466   0.791
C       0.228   0.474   0.789
C       0.236   0.472   0.658
C       0.367   0.465   0.660
H       0.321   0.469   0.861
H       0.254   0.472   0.860
H       0.341   0.466   0.587
H       0.272   0.470   0.586
H       0.429   0.462   0.761
H       0.433   0.461   0.692
H       0.161   0.477   0.757
H       0.166   0.477   0.688
H       0.295   0.469   0.753
H       0.299   0.469   0.694
O       0.463   0.407   0.912
O       0.512   0.429   0.890
C       0.481   0.421   0.890
O       0.463   0.407   0.912
O       0.512   0.429   0.890
C       0.357   0.466   0.791
C       0.453   0.436   0.826
C       0.447   0.434   0.863
C       0.412   0.442   0.877
C       0.385   0.451   0.855
C       0.391   0.454   0.818
C       0.426   0.446   0.804
F       0.434   0.447   0.769
H       0.479   0.430   0.814
H       0.359   0.457   0.867
F       0.404   0.440   0.912
O       0.191   0.386   0.529
O       0.214   0.418   0.485
C       0.214   0.401   0.513
O       0.164   0.436   0.885
O       0.108   0.455   0.855
C       0.292   0.466   0.655
C       0.231   0.405   0.588
C       0.237   0.420   0.554
C       0.259   0.449   0.551
C       0.275   0.462   0.580
C       0.269   0.447   0.614
C       0.247   0.418   0.617
F       0.241   0.403   0.648
H       0.215   0.383   0.592
H       0.291   0.484   0.576
F       0.265   0.464   0.519
O       0.548   0.440   0.567
O       0.597   0.463   0.581
C       0.567   0.455   0.586
O       0.518   0.400   0.909
O       0.567   0.422   0.887
C       0.423   0.458   0.657
C       0.500   0.449   0.585
C       0.529   0.456   0.604
C       0.523   0.464   0.641
C       0.490   0.465   0.657
C       0.460   0.457   0.638
C       0.466   0.449   0.602
F       0.439   0.442   0.582
H       0.503   0.442   0.557
H       0.487   0.471   0.686
F       0.550   0.471   0.661
O       0.108   0.443   0.888
O       0.135   0.473   0.928
C       0.228   0.474   0.789
O       0.108   0.443   0.888
O       0.135   0.473   0.928
C       0.133   0.457   0.900
C       0.164   0.433   0.849
C       0.155   0.461   0.874
C       0.173   0.493   0.869
C       0.197   0.497   0.840
C       0.205   0.470   0.815
C       0.188   0.438   0.820
F       0.195   0.410   0.798
H       0.151   0.408   0.851
H       0.210   0.522   0.838
F       0.166   0.520   0.891
