1332
generated by MOF_BUILD
O      -0.000   1.973   3.529
O       0.000   1.973  -3.529
O       1.973   3.529   0.000
O      -1.973   3.529   0.000
O      -3.529   1.973   0.000
O       3.529   1.973   0.000
O       0.000   3.529  -1.973
O      -0.000   3.529   1.973
Zr      0.000   2.482   0.000
O      -1.161   1.161  -1.161
O       1.161   1.161   1.161
C      -0.000   3.179   3.179
C       0.000   3.179  -3.179
C       3.179   3.179   0.000
C      -3.179   3.179   0.000
H       1.863   1.863  -1.863
O       1.161   1.161  -1.161
H      -1.863   1.863   1.863
O      -1.161   1.161   1.161
O       0.000  -1.973  -3.529
O      -0.000  -1.973   3.529
O       3.529   0.000  -1.973
O      -3.529   0.000  -1.973
O      -3.529  -0.000   1.973
O       3.529  -0.000   1.973
O       1.973  -3.529  -0.000
O      -1.973  -3.529  -0.000
O       3.529  -1.973  -0.000
O      -3.529  -1.973  -0.000
O       1.973   0.000  -3.529
O       1.973  -0.000   3.529
O      -1.973  -0.000   3.529
O      -1.973   0.000  -3.529
O       0.000  -3.529  -1.973
O      -0.000  -3.529   1.973
Zr      0.000   0.000  -2.482
Zr     -0.000  -0.000   2.482
Zr      2.482  -0.000   0.000
Zr     -2.482   0.000   0.000
Zr     -0.000  -2.482  -0.000
O      -1.161  -1.161   1.161
O       1.161  -1.161  -1.161
C       0.000  -3.179  -3.179
C      -0.000  -3.179   3.179
C       3.179   0.000  -3.179
C      -3.179   0.000  -3.179
C      -3.179  -0.000   3.179
C       3.179  -0.000   3.179
C       3.179  -3.179  -0.000
C      -3.179  -3.179  -0.000
H       1.863  -1.863   1.863
O       1.161  -1.161   1.161
H      -1.863  -1.863  -1.863
O      -1.161  -1.161  -1.161
O       0.000   8.574   7.018
O       0.000   8.574  14.077
O       1.973   7.018  10.547
O      -1.973   7.018  10.547
O      -3.529   8.574  10.547
O       3.529   8.574  10.547
O       0.000   7.018  12.520
O       0.000   7.018   8.574
Zr      0.000   8.065  10.547
O      -1.161   9.386  11.708
O       1.161   9.386   9.386
C       0.000   7.368   7.368
C       0.000   7.368  13.727
C       3.179   7.368  10.547
C      -3.179   7.368  10.547
H       1.863   8.684  12.410
O       1.161   9.386  11.708
H      -1.863   8.684   8.684
O      -1.161   9.386   9.386
O       0.000  12.520  14.077
O       0.000  12.520   7.018
O       3.529  10.547  12.520
O      -3.529  10.547  12.520
O      -3.529  10.547   8.574
O       3.529  10.547   8.574
O       1.973  14.077  10.547
O      -1.973  14.077  10.547
O       3.529  12.520  10.547
O      -3.529  12.520  10.547
O       1.973  10.547  14.077
O       1.973  10.547   7.018
O      -1.973  10.547   7.018
O      -1.973  10.547  14.077
O       0.000  14.077  12.520
O       0.000  14.077   8.574
Zr      0.000  10.547  13.029
Zr      0.000  10.547   8.065
Zr      2.482  10.547  10.547
Zr     -2.482  10.547  10.547
Zr      0.000  13.029  10.547
O      -1.161  11.708   9.386
O       1.161  11.708  11.708
C       0.000  13.727  13.727
C       0.000  13.727   7.368
C       3.179  10.547  13.727
C      -3.179  10.547  13.727
C      -3.179  10.547   7.368
C       3.179  10.547   7.368
C       3.179  13.727  10.547
C      -3.179  13.727  10.547
H       1.863  12.410   8.684
O       1.161  11.708   9.386
H      -1.863  12.410  12.410
O      -1.161  11.708  11.708
O      12.520  21.095   7.018
O      12.520  21.095  14.077
O      14.077  23.067  10.547
O      14.077  19.122  10.547
O      12.520  17.565  10.547
O      12.520  24.624  10.547
O      14.077  21.095  12.520
O      14.077  21.095   8.574
Zr     13.029  21.095  10.547
O      11.708  19.933  11.708
O      11.708  22.256   9.386
C      13.727  21.095   7.368
C      13.727  21.095  13.727
C      13.727  24.274  10.547
C      13.727  17.915  10.547
H      12.410  22.958  12.410
O      11.708  22.256  11.708
H      12.410  19.232   8.684
O      11.708  19.933   9.386
O       8.574  21.095  14.077
O       8.574  21.095   7.018
O      10.547  24.624  12.520
O      10.547  17.565  12.520
O      10.547  17.565   8.574
O      10.547  24.624   8.574
O       7.018  23.067  10.547
O       7.018  19.122  10.547
O       8.574  24.624  10.547
O       8.574  17.565  10.547
O      10.547  23.067  14.077
O      10.547  23.067   7.018
O      10.547  19.122   7.018
O      10.547  19.122  14.077
O       7.018  21.095  12.520
O       7.018  21.095   8.574
Zr     10.547  21.095  13.029
Zr     10.547  21.095   8.065
Zr     10.547  23.577  10.547
Zr     10.547  18.613  10.547
Zr      8.065  21.095  10.547
O       9.386  19.933   9.386
O       9.386  22.256  11.708
C       7.368  21.095  13.727
C       7.368  21.095   7.368
C      10.547  24.274  13.727
C      10.547  17.915  13.727
C      10.547  17.915   7.368
C      10.547  24.274   7.368
C       7.368  24.274  10.547
C       7.368  17.915  10.547
H       8.684  22.958   8.684
O       9.386  22.256   9.386
H       8.684  19.232  12.410
O       9.386  19.933  11.708
O       8.574   7.018  21.095
O       8.574  14.077  21.095
O       7.018  10.547  23.067
O       7.018  10.547  19.122
O       8.574  10.547  17.565
O       8.574  10.547  24.624
O       7.018  12.520  21.095
O       7.018   8.574  21.095
Zr      8.065  10.547  21.095
O       9.386  11.708  19.933
O       9.386   9.386  22.256
C       7.368   7.368  21.095
C       7.368  13.727  21.095
C       7.368  10.547  24.274
C       7.368  10.547  17.915
H       8.684  12.410  22.958
O       9.386  11.708  22.256
H       8.684   8.684  19.232
O       9.386   9.386  19.933
O      12.520  14.077  21.095
O      12.520   7.018  21.095
O      10.547  12.520  24.624
O      10.547  12.520  17.565
O      10.547   8.574  17.565
O      10.547   8.574  24.624
O      14.077  10.547  23.067
O      14.077  10.547  19.122
O      12.520  10.547  24.624
O      12.520  10.547  17.565
O      10.547  14.077  23.067
O      10.547   7.018  23.067
O      10.547   7.018  19.122
O      10.547  14.077  19.122
O      14.077  12.520  21.095
O      14.077   8.574  21.095
Zr     10.547  13.029  21.095
Zr     10.547   8.065  21.095
Zr     10.547  10.547  23.577
Zr     10.547  10.547  18.613
Zr     13.029  10.547  21.095
O      11.708   9.386  19.933
O      11.708  11.708  22.256
C      13.727  13.727  21.095
C      13.727   7.368  21.095
C      10.547  13.727  24.274
C      10.547  13.727  17.915
C      10.547   7.368  17.915
C      10.547   7.368  24.274
C      13.727  10.547  24.274
C      13.727  10.547  17.915
H      12.410   8.684  22.958
O      11.708   9.386  22.256
H      12.410  12.410  19.232
O      11.708  11.708  19.933
O       0.000   8.574   7.018
O       0.000   7.018   8.574
C       0.000   7.368   7.368
O      -0.000   1.973   3.529
O      -0.000   3.529   1.973
C      -0.000   3.179   3.179
C       0.664   5.059   6.478
C       0.000   6.279   6.279
C      -0.660   6.465   5.053
C      -0.664   5.488   4.069
C       0.000   4.268   4.268
C       0.660   4.082   5.494
F       1.317   2.939   5.756
H       1.188   4.867   7.407
H      -1.188   5.680   3.140
F      -1.317   7.608   4.791
O       8.574  -0.000   7.018
O       7.018  -0.000   8.574
C       7.368  -0.000   7.368
O       3.529  -0.000   1.973
O       1.973  -0.000   3.529
C       3.179  -0.000   3.179
C       5.617  -1.184   5.920
C       6.279  -0.000   6.279
C       5.910   1.178   5.609
C       4.930   1.184   4.627
C       4.268  -0.000   4.268
C       4.638  -1.178   4.939
F       4.047  -2.350   4.648
H       5.866  -2.118   6.408
H       4.681   2.118   4.139
F       6.500   2.350   5.899
O       1.973   3.529   0.000
O       3.529   1.973   0.000
C       3.179   3.179   0.000
O       8.574   7.018  -0.000
O       7.018   8.574  -0.000
C       7.368   7.368  -0.000
C       4.930   4.627   1.184
C       4.268   4.268  -0.000
C       4.638   4.939  -1.178
C       5.617   5.920  -1.184
C       6.279   6.279  -0.000
C       5.910   5.609   1.178
F       6.500   5.899   2.350
H       4.681   4.139   2.118
H       5.866   6.408  -2.118
F       4.047   4.648  -2.350
O       3.529  10.547  12.520
O       1.973  10.547  14.077
C       3.179  10.547  13.727
O       7.018  10.547  19.122
O       8.574  10.547  17.565
C       7.368  10.547  17.915
C       6.606  10.333  15.479
C       6.279  10.547  16.826
C       4.926  10.760  17.139
C       3.941  10.761  16.163
C       4.268  10.547  14.816
C       5.621  10.334  14.503
F       6.009  10.122  13.233
H       7.635  10.164  15.186
H       2.912  10.930  16.455
F       4.538  10.972  18.408
O       3.529  10.547   8.574
O       1.973  10.547   7.018
C       3.179  10.547   7.368
O       7.018  10.547   1.973
O       8.574  10.547   3.529
C       7.368  10.547   3.179
C       5.629  10.555   6.620
C       4.268  10.547   6.279
C       3.942  10.540   4.913
C       4.918  10.539   3.928
C       6.279  10.547   4.268
C       6.605  10.555   5.634
F       7.888  10.562   6.036
H       5.932  10.561   7.659
H       4.615  10.534   2.888
F       2.659  10.532   4.511
O       1.973  14.077  10.547
O       3.529  12.520  10.547
C       3.179  13.727  10.547
O       7.018  19.122  10.547
O       8.574  17.565  10.547
C       7.368  17.915  10.547
C       4.930  15.174  11.731
C       4.268  14.816  10.547
C       4.638  15.486   9.370
C       5.617  16.467   9.363
C       6.279  16.826  10.547
C       5.910  16.156  11.725
F       6.500  16.446  12.897
H       4.681  14.687  12.666
H       5.866  16.955   8.429
F       4.047  15.196   8.198
O       1.973   7.018  10.547
O       3.529   8.574  10.547
C       3.179   7.368  10.547
O       7.018   1.973  10.547
O       8.574   3.529  10.547
C       7.368   3.179  10.547
C       5.616   6.606  10.762
C       4.268   6.279  10.547
C       3.955   4.926  10.334
C       4.931   3.941  10.333
C       6.279   4.268  10.547
C       6.592   5.621  10.760
F       7.861   6.009  10.972
H       5.908   7.635  10.930
H       4.639   2.912  10.164
F       2.686   4.538  10.122
O      10.547  12.520  17.565
O      10.547  14.077  19.122
C      10.547  13.727  17.915
O      10.547  17.565  12.520
O      10.547  19.122  14.077
C      10.547  17.915  13.727
C      11.745  15.247  16.237
C      10.547  14.816  16.826
C       9.356  15.414  16.385
C       9.349  16.395  15.404
C      10.547  16.826  14.816
C      11.739  16.228  15.257
F      12.925  16.591  14.739
H      12.691  14.817  16.544
H       8.404  16.825  15.098
F       8.170  15.051  16.903
O      10.547  17.565   8.574
O      10.547  19.122   7.018
C      10.547  17.915   7.368
O      10.547  12.520   3.529
O      10.547  14.077   1.973
C      10.547  13.727   3.179
C      10.333  16.163   3.941
C      10.547  14.816   4.268
C      10.760  14.503   5.621
C      10.761  15.479   6.606
C      10.547  16.826   6.279
C      10.334  17.139   4.926
F      10.122  18.408   4.538
H      10.164  16.455   2.912
H      10.930  15.186   7.635
F      10.972  13.233   6.009
O      -0.000   1.973  24.624
O       0.000   1.973  17.565
O       1.973   3.529  21.095
O      -1.973   3.529  21.095
O      -3.529   1.973  21.095
O       3.529   1.973  21.095
O       0.000   3.529  19.122
O      -0.000   3.529  23.067
Zr      0.000   2.482  21.095
O      -1.161   1.161  19.933
O       1.161   1.161  22.256
C      -0.000   3.179  24.274
C       0.000   3.179  17.915
C       3.179   3.179  21.095
C      -3.179   3.179  21.095
H       1.863   1.863  19.232
O       1.161   1.161  19.933
H      -1.863   1.863  22.958
O      -1.161   1.161  22.256
O       0.000  -1.973  17.565
O      -0.000  -1.973  24.624
O       3.529   0.000  19.122
O      -3.529   0.000  19.122
O      -3.529  -0.000  23.067
O       3.529  -0.000  23.067
O       1.973  -3.529  21.095
O      -1.973  -3.529  21.095
O       3.529  -1.973  21.095
O      -3.529  -1.973  21.095
O       1.973   0.000  17.565
O       1.973  -0.000  24.624
O      -1.973  -0.000  24.624
O      -1.973   0.000  17.565
O       0.000  -3.529  19.122
O      -0.000  -3.529  23.067
Zr      0.000   0.000  18.613
Zr     -0.000  -0.000  23.577
Zr      2.482  -0.000  21.095
Zr     -2.482   0.000  21.095
Zr     -0.000  -2.482  21.095
O      -1.161  -1.161  22.256
O       1.161  -1.161  19.933
C       0.000  -3.179  17.915
C      -0.000  -3.179  24.274
C       3.179   0.000  17.915
C      -3.179   0.000  17.915
C      -3.179  -0.000  24.274
C       3.179  -0.000  24.274
C       3.179  -3.179  21.095
C      -3.179  -3.179  21.095
H       1.863  -1.863  22.958
O       1.161  -1.161  22.256
H      -1.863  -1.863  19.232
O      -1.161  -1.161  19.933
O      -0.000  23.067   3.529
O       0.000  23.067  -3.529
O       1.973  24.624   0.000
O      -1.973  24.624   0.000
O      -3.529  23.067   0.000
O       3.529  23.067   0.000
O       0.000  24.624  -1.973
O      -0.000  24.624   1.973
Zr      0.000  23.577   0.000
O      -1.161  22.256  -1.161
O       1.161  22.256   1.161
C      -0.000  24.274   3.179
C       0.000  24.274  -3.179
C       3.179  24.274   0.000
C      -3.179  24.274   0.000
H       1.863  22.958  -1.863
O       1.161  22.256  -1.161
H      -1.863  22.958   1.863
O      -1.161  22.256   1.161
O       0.000  19.122  -3.529
O      -0.000  19.122   3.529
O       3.529  21.095  -1.973
O      -3.529  21.095  -1.973
O      -3.529  21.095   1.973
O       3.529  21.095   1.973
O       1.973  17.565  -0.000
O      -1.973  17.565  -0.000
O       3.529  19.122   0.000
O      -3.529  19.122   0.000
O       1.973  21.095  -3.529
O       1.973  21.095   3.529
O      -1.973  21.095   3.529
O      -1.973  21.095  -3.529
O       0.000  17.565  -1.973
O      -0.000  17.565   1.973
Zr      0.000  21.095  -2.482
Zr     -0.000  21.095   2.482
Zr      2.482  21.095   0.000
Zr     -2.482  21.095   0.000
Zr     -0.000  18.613   0.000
O      -1.161  19.933   1.161
O       1.161  19.933  -1.161
C       0.000  17.915  -3.179
C      -0.000  17.915   3.179
C       3.179  21.095  -3.179
C      -3.179  21.095  -3.179
C      -3.179  21.095   3.179
C       3.179  21.095   3.179
C       3.179  17.915   0.000
C      -3.179  17.915   0.000
H       1.863  19.232   1.863
O       1.161  19.933   1.161
H      -1.863  19.232  -1.863
O      -1.161  19.933  -1.161
O      -0.000  23.067  24.624
O       0.000  23.067  17.565
O       1.973  24.624  21.095
O      -1.973  24.624  21.095
O      -3.529  23.067  21.095
O       3.529  23.067  21.095
O       0.000  24.624  19.122
O      -0.000  24.624  23.067
Zr      0.000  23.577  21.095
O      -1.161  22.256  19.933
O       1.161  22.256  22.256
C      -0.000  24.274  24.274
C       0.000  24.274  17.915
C       3.179  24.274  21.095
C      -3.179  24.274  21.095
H       1.863  22.958  19.232
O       1.161  22.256  19.933
H      -1.863  22.958  22.958
O      -1.161  22.256  22.256
O       0.000  19.122  17.565
O      -0.000  19.122  24.624
O       3.529  21.095  19.122
O      -3.529  21.095  19.122
O      -3.529  21.095  23.067
O       3.529  21.095  23.067
O       1.973  17.565  21.095
O      -1.973  17.565  21.095
O       3.529  19.122  21.095
O      -3.529  19.122  21.095
O       1.973  21.095  17.565
O       1.973  21.095  24.624
O      -1.973  21.095  24.624
O      -1.973  21.095  17.565
O       0.000  17.565  19.122
O      -0.000  17.565  23.067
Zr      0.000  21.095  18.613
Zr     -0.000  21.095  23.577
Zr      2.482  21.095  21.095
Zr     -2.482  21.095  21.095
Zr     -0.000  18.613  21.095
O      -1.161  19.933  22.256
O       1.161  19.933  19.933
C       0.000  17.915  17.915
C      -0.000  17.915  24.274
C       3.179  21.095  17.915
C      -3.179  21.095  17.915
C      -3.179  21.095  24.274
C       3.179  21.095  24.274
C       3.179  17.915  21.095
C      -3.179  17.915  21.095
H       1.863  19.232  22.958
O       1.161  19.933  22.256
H      -1.863  19.232  19.232
O      -1.161  19.933  19.933
O      21.095   1.973   3.529
O      21.095   1.973  -3.529
O      23.067   3.529   0.000
O      19.122   3.529   0.000
O      17.565   1.973   0.000
O      24.624   1.973   0.000
O      21.095   3.529  -1.973
O      21.095   3.529   1.973
Zr     21.095   2.482   0.000
O      19.933   1.161  -1.161
O      22.256   1.161   1.161
C      21.095   3.179   3.179
C      21.095   3.179  -3.179
C      24.274   3.179   0.000
C      17.915   3.179   0.000
H      22.958   1.863  -1.863
O      22.256   1.161  -1.161
H      19.232   1.863   1.863
O      19.933   1.161   1.161
O      21.095  -1.973  -3.529
O      21.095  -1.973   3.529
O      24.624   0.000  -1.973
O      17.565   0.000  -1.973
O      17.565   0.000   1.973
O      24.624  -0.000   1.973
O      23.067  -3.529  -0.000
O      19.122  -3.529  -0.000
O      24.624  -1.973   0.000
O      17.565  -1.973   0.000
O      23.067   0.000  -3.529
O      23.067  -0.000   3.529
O      19.122  -0.000   3.529
O      19.122   0.000  -3.529
O      21.095  -3.529  -1.973
O      21.095  -3.529   1.973
Zr     21.095   0.000  -2.482
Zr     21.095   0.000   2.482
Zr     23.577   0.000   0.000
Zr     18.613   0.000   0.000
Zr     21.095  -2.482   0.000
O      19.933  -1.161   1.161
O      22.256  -1.161  -1.161
C      21.095  -3.179  -3.179
C      21.095  -3.179   3.179
C      24.274   0.000  -3.179
C      17.915   0.000  -3.179
C      17.915   0.000   3.179
C      24.274  -0.000   3.179
C      24.274  -3.179   0.000
C      17.915  -3.179   0.000
H      22.958  -1.863   1.863
O      22.256  -1.161   1.161
H      19.232  -1.863  -1.863
O      19.933  -1.161  -1.161
O      21.095   1.973  24.624
O      21.095   1.973  17.565
O      23.067   3.529  21.095
O      19.122   3.529  21.095
O      17.565   1.973  21.095
O      24.624   1.973  21.095
O      21.095   3.529  19.122
O      21.095   3.529  23.067
Zr     21.095   2.482  21.095
O      19.933   1.161  19.933
O      22.256   1.161  22.256
C      21.095   3.179  24.274
C      21.095   3.179  17.915
C      24.274   3.179  21.095
C      17.915   3.179  21.095
H      22.958   1.863  19.232
O      22.256   1.161  19.933
H      19.232   1.863  22.958
O      19.933   1.161  22.256
O      21.095  -1.973  17.565
O      21.095  -1.973  24.624
O      24.624   0.000  19.122
O      17.565   0.000  19.122
O      17.565   0.000  23.067
O      24.624  -0.000  23.067
O      23.067  -3.529  21.095
O      19.122  -3.529  21.095
O      24.624  -1.973  21.095
O      17.565  -1.973  21.095
O      23.067   0.000  17.565
O      23.067  -0.000  24.624
O      19.122  -0.000  24.624
O      19.122   0.000  17.565
O      21.095  -3.529  19.122
O      21.095  -3.529  23.067
Zr     21.095   0.000  18.613
Zr     21.095   0.000  23.577
Zr     23.577   0.000  21.095
Zr     18.613   0.000  21.095
Zr     21.095  -2.482  21.095
O      19.933  -1.161  22.256
O      22.256  -1.161  19.933
C      21.095  -3.179  17.915
C      21.095  -3.179  24.274
C      24.274   0.000  17.915
C      17.915   0.000  17.915
C      17.915   0.000  24.274
C      24.274  -0.000  24.274
C      24.274  -3.179  21.095
C      17.915  -3.179  21.095
H      22.958  -1.863  22.958
O      22.256  -1.161  22.256
H      19.232  -1.863  19.232
O      19.933  -1.161  19.933
O      21.095  23.067   3.529
O      21.095  23.067  -3.529
O      23.067  24.624   0.000
O      19.122  24.624   0.000
O      17.565  23.067   0.000
O      24.624  23.067   0.000
O      21.095  24.624  -1.973
O      21.095  24.624   1.973
Zr     21.095  23.577   0.000
O      19.933  22.256  -1.161
O      22.256  22.256   1.161
C      21.095  24.274   3.179
C      21.095  24.274  -3.179
C      24.274  24.274   0.000
C      17.915  24.274   0.000
H      22.958  22.958  -1.863
O      22.256  22.256  -1.161
H      19.232  22.958   1.863
O      19.933  22.256   1.161
O      21.095  19.122  -3.529
O      21.095  19.122   3.529
O      24.624  21.095  -1.973
O      17.565  21.095  -1.973
O      17.565  21.095   1.973
O      24.624  21.095   1.973
O      23.067  17.565   0.000
O      19.122  17.565   0.000
O      24.624  19.122   0.000
O      17.565  19.122   0.000
O      23.067  21.095  -3.529
O      23.067  21.095   3.529
O      19.122  21.095   3.529
O      19.122  21.095  -3.529
O      21.095  17.565  -1.973
O      21.095  17.565   1.973
Zr     21.095  21.095  -2.482
Zr     21.095  21.095   2.482
Zr     23.577  21.095   0.000
Zr     18.613  21.095   0.000
Zr     21.095  18.613   0.000
O      19.933  19.933   1.161
O      22.256  19.933  -1.161
C      21.095  17.915  -3.179
C      21.095  17.915   3.179
C      24.274  21.095  -3.179
C      17.915  21.095  -3.179
C      17.915  21.095   3.179
C      24.274  21.095   3.179
C      24.274  17.915   0.000
C      17.915  17.915   0.000
H      22.958  19.232   1.863
O      22.256  19.933   1.161
H      19.232  19.232  -1.863
O      19.933  19.933  -1.161
O      21.095  23.067  24.624
O      21.095  23.067  17.565
O      23.067  24.624  21.095
O      19.122  24.624  21.095
O      17.565  23.067  21.095
O      24.624  23.067  21.095
O      21.095  24.624  19.122
O      21.095  24.624  23.067
Zr     21.095  23.577  21.095
O      19.933  22.256  19.933
O      22.256  22.256  22.256
C      21.095  24.274  24.274
C      21.095  24.274  17.915
C      24.274  24.274  21.095
C      17.915  24.274  21.095
H      22.958  22.958  19.232
O      22.256  22.256  19.933
H      19.232  22.958  22.958
O      19.933  22.256  22.256
O      21.095  19.122  17.565
O      21.095  19.122  24.624
O      24.624  21.095  19.122
O      17.565  21.095  19.122
O      17.565  21.095  23.067
O      24.624  21.095  23.067
O      23.067  17.565  21.095
O      19.122  17.565  21.095
O      24.624  19.122  21.095
O      17.565  19.122  21.095
O      23.067  21.095  17.565
O      23.067  21.095  24.624
O      19.122  21.095  24.624
O      19.122  21.095  17.565
O      21.095  17.565  19.122
O      21.095  17.565  23.067
Zr     21.095  21.095  18.613
Zr     21.095  21.095  23.577
Zr     23.577  21.095  21.095
Zr     18.613  21.095  21.095
Zr     21.095  18.613  21.095
O      19.933  19.933  22.256
O      22.256  19.933  19.933
C      21.095  17.915  17.915
C      21.095  17.915  24.274
C      24.274  21.095  17.915
C      17.915  21.095  17.915
C      17.915  21.095  24.274
C      24.274  21.095  24.274
C      24.274  17.915  21.095
C      17.915  17.915  21.095
H      22.958  19.232  22.958
O      22.256  19.933  22.256
H      19.232  19.232  19.232
O      19.933  19.933  19.933
O      21.095   8.574   7.018
O      21.095   8.574  14.077
O      23.067   7.018  10.547
O      19.122   7.018  10.547
O      17.565   8.574  10.547
O      24.624   8.574  10.547
O      21.095   7.018  12.520
O      21.095   7.018   8.574
Zr     21.095   8.065  10.547
O      19.933   9.386  11.708
O      22.256   9.386   9.386
C      21.095   7.368   7.368
C      21.095   7.368  13.727
C      24.274   7.368  10.547
C      17.915   7.368  10.547
H      22.958   8.684  12.410
O      22.256   9.386  11.708
H      19.232   8.684   8.684
O      19.933   9.386   9.386
O      21.095  12.520  14.077
O      21.095  12.520   7.018
O      24.624  10.547  12.520
O      17.565  10.547  12.520
O      17.565  10.547   8.574
O      24.624  10.547   8.574
O      23.067  14.077  10.547
O      19.122  14.077  10.547
O      24.624  12.520  10.547
O      17.565  12.520  10.547
O      23.067  10.547  14.077
O      23.067  10.547   7.018
O      19.122  10.547   7.018
O      19.122  10.547  14.077
O      21.095  14.077  12.520
O      21.095  14.077   8.574
Zr     21.095  10.547  13.029
Zr     21.095  10.547   8.065
Zr     23.577  10.547  10.547
Zr     18.613  10.547  10.547
Zr     21.095  13.029  10.547
O      19.933  11.708   9.386
O      22.256  11.708  11.708
C      21.095  13.727  13.727
C      21.095  13.727   7.368
C      24.274  10.547  13.727
C      17.915  10.547  13.727
C      17.915  10.547   7.368
C      24.274  10.547   7.368
C      24.274  13.727  10.547
C      17.915  13.727  10.547
H      22.958  12.410   8.684
O      22.256  11.708   9.386
H      19.232  12.410  12.410
O      19.933  11.708  11.708
O      12.520  -0.000   7.018
O      12.520  -0.000  14.077
O      14.077   1.973  10.547
O      14.077  -1.973  10.547
O      12.520  -3.529  10.547
O      12.520   3.529  10.547
O      14.077  -0.000  12.520
O      14.077  -0.000   8.574
Zr     13.029  -0.000  10.547
O      11.708  -1.161  11.708
O      11.708   1.161   9.386
C      13.727  -0.000   7.368
C      13.727  -0.000  13.727
C      13.727   3.179  10.547
C      13.727  -3.179  10.547
H      12.410   1.863  12.410
O      11.708   1.161  11.708
H      12.410  -1.863   8.684
O      11.708  -1.161   9.386
O       8.574  -0.000  14.077
O       8.574  -0.000   7.018
O      10.547   3.529  12.520
O      10.547  -3.529  12.520
O      10.547  -3.529   8.574
O      10.547   3.529   8.574
O       7.018   1.973  10.547
O       7.018  -1.973  10.547
O       8.574   3.529  10.547
O       8.574  -3.529  10.547
O      10.547   1.973  14.077
O      10.547   1.973   7.018
O      10.547  -1.973   7.018
O      10.547  -1.973  14.077
O       7.018  -0.000  12.520
O       7.018  -0.000   8.574
Zr     10.547  -0.000  13.029
Zr     10.547  -0.000   8.065
Zr     10.547   2.482  10.547
Zr     10.547  -2.482  10.547
Zr      8.065  -0.000  10.547
O       9.386  -1.161   9.386
O       9.386   1.161  11.708
C       7.368  -0.000  13.727
C       7.368  -0.000   7.368
C      10.547   3.179  13.727
C      10.547  -3.179  13.727
C      10.547  -3.179   7.368
C      10.547   3.179   7.368
C       7.368   3.179  10.547
C       7.368  -3.179  10.547
H       8.684   1.863   8.684
O       9.386   1.161   9.386
H       8.684  -1.863  12.410
O       9.386  -1.161  11.708
O       8.574   7.018  -0.000
O       8.574  14.077  -0.000
O       7.018  10.547   1.973
O       7.018  10.547  -1.973
O       8.574  10.547  -3.529
O       8.574  10.547   3.529
O       7.018  12.520  -0.000
O       7.018   8.574  -0.000
Zr      8.065  10.547  -0.000
O       9.386  11.708  -1.161
O       9.386   9.386   1.161
C       7.368   7.368  -0.000
C       7.368  13.727  -0.000
C       7.368  10.547   3.179
C       7.368  10.547  -3.179
H       8.684  12.410   1.863
O       9.386  11.708   1.161
H       8.684   8.684  -1.863
O       9.386   9.386  -1.161
O      12.520  14.077  -0.000
O      12.520   7.018  -0.000
O      10.547  12.520   3.529
O      10.547  12.520  -3.529
O      10.547   8.574  -3.529
O      10.547   8.574   3.529
O      14.077  10.547   1.973
O      14.077  10.547  -1.973
O      12.520  10.547   3.529
O      12.520  10.547  -3.529
O      10.547  14.077   1.973
O      10.547   7.018   1.973
O      10.547   7.018  -1.973
O      10.547  14.077  -1.973
O      14.077  12.520  -0.000
O      14.077   8.574  -0.000
Zr     10.547  13.029  -0.000
Zr     10.547   8.065  -0.000
Zr     10.547  10.547   2.482
Zr     10.547  10.547  -2.482
Zr     13.029  10.547  -0.000
O      11.708   9.386  -1.161
O      11.708  11.708   1.161
C      13.727  13.727  -0.000
C      13.727   7.368  -0.000
C      10.547  13.727   3.179
C      10.547  13.727  -3.179
C      10.547   7.368  -3.179
C      10.547   7.368   3.179
C      13.727  10.547   3.179
C      13.727  10.547  -3.179
H      12.410   8.684   1.863
O      11.708   9.386   1.161
H      12.410  12.410  -1.863
O      11.708  11.708  -1.161
O      21.095   8.574   7.018
O      21.095   7.018   8.574
C      21.095   7.368   7.368
O      21.095   1.973   3.529
O      21.095   3.529   1.973
C      21.095   3.179   3.179
C      21.758   5.059   6.478
C      21.095   6.279   6.279
C      20.434   6.465   5.053
C      20.431   5.488   4.069
C      21.095   4.268   4.268
C      21.755   4.082   5.494
F      22.412   2.939   5.756
H      22.282   4.867   7.407
H      19.907   5.680   3.140
F      19.777   7.608   4.791
O      -0.000  19.122   3.529
O      -0.000  17.565   1.973
C      -0.000  17.915   3.179
O       0.000  12.520   7.018
O       0.000  14.077   8.574
C       0.000  13.727   7.368
C       0.896  15.748   4.211
C      -0.000  16.826   4.268
C      -0.891  16.871   5.353
C      -0.896  15.894   6.337
C       0.000  14.816   6.279
C       0.891  14.771   5.194
F       1.778  13.768   5.073
H       1.603  15.668   3.394
H      -1.603  15.974   7.153
F      -1.778  17.874   5.475
O      21.095  19.122   3.529
O      21.095  17.565   1.973
C      21.095  17.915   3.179
O      21.095  12.520   7.018
O      21.095  14.077   8.574
C      21.095  13.727   7.368
C      21.991  15.748   4.211
C      21.095  16.826   4.268
C      20.203  16.871   5.353
C      20.199  15.894   6.337
C      21.095  14.816   6.279
C      21.986  14.771   5.194
F      22.873  13.768   5.073
H      22.698  15.668   3.394
H      19.491  15.974   7.153
F      19.316  17.874   5.475
O       0.000  19.122  17.565
O       0.000  17.565  19.122
C       0.000  17.915  17.915
O      -0.000  12.520  14.077
O      -0.000  14.077  12.520
C      -0.000  13.727  13.727
C      -0.799  16.952  15.680
C       0.000  16.826  16.826
C       0.795  15.674  16.939
C       0.799  14.690  15.962
C      -0.000  14.816  14.816
C      -0.795  15.968  14.703
F      -1.585  16.157  13.632
H      -1.430  17.823  15.546
H       1.430  13.819  16.096
F       1.585  15.484  18.009
O      21.095  19.122  17.565
O      21.095  17.565  19.122
C      21.095  17.915  17.915
O      21.095  12.520  14.077
O      21.095  14.077  12.520
C      21.095  13.727  13.727
C      20.296  16.952  15.680
C      21.095  16.826  16.826
C      21.889  15.674  16.939
C      21.894  14.690  15.962
C      21.095  14.816  14.816
C      20.300  15.968  14.703
F      19.509  16.157  13.632
H      19.665  17.823  15.546
H      22.524  13.819  16.096
F      22.680  15.484  18.009
O      -0.000   8.574  14.077
O      -0.000   7.018  12.520
C      -0.000   7.368  13.727
O       0.000   1.973  17.565
O       0.000   3.529  19.122
C       0.000   3.179  17.915
C       0.746   6.436  15.993
C      -0.000   6.279  14.816
C      -0.742   5.095  14.671
C      -0.746   4.111  15.649
C       0.000   4.268  16.826
C       0.742   5.452  16.970
F       1.481   5.672  18.072
H       1.335   7.331  16.152
H      -1.335   3.216  15.490
F      -1.481   4.875  13.570
O      21.095   8.574  14.077
O      21.095   7.018  12.520
C      21.095   7.368  13.727
O      21.095   1.973  17.565
O      21.095   3.529  19.122
C      21.095   3.179  17.915
C      21.841   6.436  15.993
C      21.095   6.279  14.816
C      20.352   5.095  14.671
C      20.348   4.111  15.649
C      21.095   4.268  16.826
C      21.837   5.452  16.970
F      22.575   5.672  18.072
H      22.430   7.331  16.152
H      19.760   3.216  15.490
F      19.614   4.875  13.570
O      17.565   0.000   1.973
O      19.122  -0.000   3.529
C      17.915   0.000   3.179
O      12.520  -0.000   7.018
O      14.077  -0.000   8.574
C      13.727  -0.000   7.368
C      17.153   0.214   5.616
C      16.826  -0.000   4.268
C      15.474  -0.213   3.955
C      14.489  -0.214   4.931
C      14.816  -0.000   6.279
C      16.168   0.213   6.592
F      16.556   0.425   7.861
H      18.182   0.383   5.908
H      13.459  -0.383   4.639
F      15.086  -0.425   2.686
O      17.565  21.095   1.973
O      19.122  21.095   3.529
C      17.915  21.095   3.179
O      12.520  21.095   7.018
O      14.077  21.095   8.574
C      13.727  21.095   7.368
C      17.153  21.309   5.616
C      16.826  21.095   4.268
C      15.474  20.882   3.955
C      14.489  20.881   4.931
C      14.816  21.095   6.279
C      16.168  21.308   6.592
F      16.556  21.520   7.861
H      18.182  21.478   5.908
H      13.459  20.711   4.639
F      15.086  20.669   2.686
O       8.574  21.095   7.018
O       7.018  21.095   8.574
C       7.368  21.095   7.368
O       3.529  21.095   1.973
O       1.973  21.095   3.529
C       3.179  21.095   3.179
C       5.617  19.910   5.920
C       6.279  21.095   6.279
C       5.910  22.272   5.609
C       4.930  22.279   4.627
C       4.268  21.095   4.268
C       4.638  19.917   4.939
F       4.047  18.745   4.648
H       5.866  18.976   6.408
H       4.681  23.213   4.139
F       6.500  23.444   5.899
O       8.574  -0.000  14.077
O       7.018  -0.000  12.520
C       7.368  -0.000  13.727
O       3.529   0.000  19.122
O       1.973   0.000  17.565
C       3.179   0.000  17.915
C       6.606   0.214  16.163
C       6.279  -0.000  14.816
C       4.926  -0.213  14.503
C       3.941  -0.214  15.479
C       4.268  -0.000  16.826
C       5.621   0.213  17.139
F       6.009   0.425  18.408
H       7.635   0.383  16.455
H       2.912  -0.383  15.186
F       4.538  -0.425  13.233
O       8.574  21.095  14.077
O       7.018  21.095  12.520
C       7.368  21.095  13.727
O       3.529  21.095  19.122
O       1.973  21.095  17.565
C       3.179  21.095  17.915
C       6.606  21.309  16.163
C       6.279  21.095  14.816
C       4.926  20.882  14.503
C       3.941  20.881  15.479
C       4.268  21.095  16.826
C       5.621  21.308  17.139
F       6.009  21.520  18.408
H       7.635  21.478  16.455
H       2.912  20.711  15.186
F       4.538  20.669  13.233
O      12.520  -0.000  14.077
O      14.077  -0.000  12.520
C      13.727  -0.000  13.727
O      17.565   0.000  19.122
O      19.122   0.000  17.565
C      17.915   0.000  17.915
C      14.476  -0.066  16.175
C      14.816  -0.000  14.816
C      16.180   0.065  14.490
C      17.166   0.066  15.466
C      16.826   0.000  16.826
C      15.461  -0.065  17.151
F      15.061  -0.130  18.433
H      13.437  -0.117  16.478
H      18.204   0.117  15.164
F      16.581   0.130  13.209
O      12.520  21.095  14.077
O      14.077  21.095  12.520
C      13.727  21.095  13.727
O      17.565  21.095  19.122
O      19.122  21.095  17.565
C      17.915  21.095  17.915
C      14.476  21.029  16.175
C      14.816  21.095  14.816
C      16.180  21.160  14.490
C      17.166  21.160  15.466
C      16.826  21.095  16.826
C      15.461  21.029  17.151
F      15.061  20.964  18.433
H      13.437  20.977  16.478
H      18.204  21.212  15.164
F      16.581  21.225  13.209
O       1.973   3.529  21.095
O       3.529   1.973  21.095
C       3.179   3.179  21.095
O       8.574   7.018  21.095
O       7.018   8.574  21.095
C       7.368   7.368  21.095
C       4.930   4.627  22.279
C       4.268   4.268  21.095
C       4.638   4.939  19.917
C       5.617   5.920  19.910
C       6.279   6.279  21.095
C       5.910   5.609  22.272
F       6.500   5.899  23.444
H       4.681   4.139  23.213
H       5.866   6.408  18.976
F       4.047   4.648  18.745
O       1.973  17.565  -0.000
O       3.529  19.122   0.000
C       3.179  17.915   0.000
O       8.574  14.077  -0.000
O       7.018  12.520  -0.000
C       7.368  13.727  -0.000
C       4.732  16.270   1.202
C       4.268  16.826  -0.000
C       4.834  16.353  -1.195
C       5.815  15.372  -1.201
C       6.279  14.816  -0.000
C       5.713  15.289   1.195
F       6.107  14.803   2.384
H       4.327  16.601   2.150
H       6.220  15.041  -2.150
F       4.440  16.839  -2.384
O       1.973  17.565  21.095
O       3.529  19.122  21.095
C       3.179  17.915  21.095
O       8.574  14.077  21.095
O       7.018  12.520  21.095
C       7.368  13.727  21.095
C       4.732  16.270  22.296
C       4.268  16.826  21.095
C       4.834  16.353  19.900
C       5.815  15.372  19.893
C       6.279  14.816  21.095
C       5.713  15.289  22.290
F       6.107  14.803  23.479
H       4.327  16.601  23.244
H       6.220  15.041  18.945
F       4.440  16.839  18.710
O      12.520   7.018  -0.000
O      14.077   8.574  -0.000
C      13.727   7.368  -0.000
O      19.122   3.529   0.000
O      17.565   1.973   0.000
C      17.915   3.179   0.000
C      15.174   5.617   1.184
C      14.816   6.279  -0.000
C      15.486   5.910  -1.178
C      16.467   4.930  -1.184
C      16.826   4.268   0.000
C      16.156   4.638   1.178
F      16.446   4.047   2.350
H      14.687   5.866   2.118
H      16.955   4.681  -2.118
F      15.196   6.500  -2.350
O      12.520   7.018  21.095
O      14.077   8.574  21.095
C      13.727   7.368  21.095
O      19.122   3.529  21.095
O      17.565   1.973  21.095
C      17.915   3.179  21.095
C      15.174   5.617  22.279
C      14.816   6.279  21.095
C      15.486   5.910  19.917
C      16.467   4.930  19.910
C      16.826   4.268  21.095
C      16.156   4.638  22.272
F      16.446   4.047  23.444
H      14.687   5.866  23.213
H      16.955   4.681  18.976
F      15.196   6.500  18.745
O      12.520  14.077  -0.000
O      14.077  12.520  -0.000
C      13.727  13.727  -0.000
O      19.122  17.565   0.000
O      17.565  19.122   0.000
C      17.915  17.915   0.000
C      15.477  15.174   1.184
C      14.816  14.816  -0.000
C      15.185  15.486  -1.178
C      16.165  16.467  -1.184
C      16.826  16.826   0.000
C      16.457  16.156   1.178
F      17.048  16.446   2.350
H      15.228  14.687   2.118
H      16.413  16.955  -2.118
F      14.594  15.196  -2.350
O      12.520  14.077  21.095
O      14.077  12.520  21.095
C      13.727  13.727  21.095
O      19.122  17.565  21.095
O      17.565  19.122  21.095
C      17.915  17.915  21.095
C      15.477  15.174  22.279
C      14.816  14.816  21.095
C      15.185  15.486  19.917
C      16.165  16.467  19.910
C      16.826  16.826  21.095
C      16.457  16.156  22.272
F      17.048  16.446  23.444
H      15.228  14.687  23.213
H      16.413  16.955  18.976
F      14.594  15.196  18.745
O      17.565  10.547  12.520
O      19.122  10.547  14.077
C      17.915  10.547  13.727
O      14.077  10.547  19.122
O      12.520  10.547  17.565
C      13.727  10.547  17.915
C      15.471  10.407  14.481
C      16.826  10.547  14.816
C      17.147  10.686  16.176
C      16.171  10.687  17.161
C      14.816  10.547  16.826
C      14.495  10.408  15.466
F      13.218  10.270  15.070
H      15.172  10.297  13.445
H      16.469  10.798  18.196
F      18.424  10.825  16.572
O      14.077  10.547   1.973
O      12.520  10.547   3.529
C      13.727  10.547   3.179
O      17.565  10.547   8.574
O      19.122  10.547   7.018
C      17.915  10.547   7.368
C      16.163  10.762   3.941
C      14.816  10.547   4.268
C      14.503  10.334   5.621
C      15.479  10.333   6.606
C      16.826  10.547   6.279
C      17.139  10.760   4.926
F      18.408  10.972   4.538
H      16.455  10.930   2.912
H      15.186  10.164   7.635
F      13.233  10.122   6.009
O      19.122  14.077  10.547
O      17.565  12.520  10.547
C      17.915  13.727  10.547
O      14.077  19.122  10.547
O      12.520  17.565  10.547
C      13.727  17.915  10.547
C      17.166  16.175  10.482
C      16.826  14.816  10.547
C      15.461  14.490  10.613
C      14.476  15.466  10.613
C      14.816  16.826  10.547
C      16.180  17.151  10.482
F      16.581  18.433  10.417
H      18.204  16.478  10.430
H      13.437  15.164  10.665
F      15.061  13.209  10.678
O      19.122   7.018  10.547
O      17.565   8.574  10.547
C      17.915   7.368  10.547
O      14.077   1.973  10.547
O      12.520   3.529  10.547
C      13.727   3.179  10.547
C      15.466   6.618  10.482
C      16.826   6.279  10.547
C      17.151   4.914  10.613
C      16.175   3.929  10.613
C      14.816   4.268  10.547
C      14.490   5.633  10.482
F      13.209   6.034  10.417
H      15.164   7.657  10.430
H      16.478   2.890  10.665
F      18.433   4.514  10.678
O      10.547   8.574  17.565
O      10.547   7.018  19.122
C      10.547   7.368  17.915
O      10.547   3.529  12.520
O      10.547   1.973  14.077
C      10.547   3.179  13.727
C      11.658   6.096  15.989
C      10.547   6.279  16.826
C       9.443   5.433  16.632
C       9.437   4.451  15.653
C      10.547   4.268  14.816
C      11.652   5.114  15.010
F      12.751   4.997  14.245
H      12.534   6.723  16.099
H       8.560   3.824  15.543
F       8.343   5.550  17.397
O      10.547   3.529   8.574
O      10.547   1.973   7.018
C      10.547   3.179   7.368
O      10.547   8.574   3.529
O      10.547   7.018   1.973
C      10.547   7.368   3.179
C      11.499   5.299   6.289
C      10.547   4.268   6.279
C       9.601   4.270   5.241
C       9.596   5.248   4.258
C      10.547   6.279   4.268
C      11.494   6.277   5.306
F      12.436   7.233   5.381
H      12.250   5.342   7.069
H       8.845   5.205   3.478
F       8.659   3.314   5.166
