444
generated by MOF_BUILD
Al      0.504   5.261  13.507
Al      3.445   3.745  13.632
O       1.680   3.964  13.942
O       1.800   6.525  14.128
O       3.036   4.247  11.808
O       1.213   5.187  11.731
O       3.623   5.584  14.206
X       3.087   6.734  14.444
X       2.233   4.788  10.956
Al      5.093  10.277  -0.065
Al      6.623  13.210   0.065
O       6.395  11.447   0.373
O       3.835  11.579   0.555
O       6.122  12.805  -1.760
O       5.173  10.986  -1.840
O       4.784  13.398   0.635
X       3.631  12.867   0.871
X       5.579  12.004  -2.614
Al      4.117  16.539  13.637
Al      5.625  19.485  13.502
O       4.331  18.306  13.941
O       4.590  16.884  11.815
O       6.862  18.136  14.132
O       5.927  16.310  14.216
O       5.524  18.710  11.731
X       5.159  17.744  10.957
X       7.105  16.909  14.450
Al     10.227  15.178   0.061
Al      7.284  13.665  -0.061
O       9.048  13.882  -0.372
O       8.932  16.443  -0.561
O       7.694  14.169   1.762
O       9.519  15.106   1.838
O       7.107  15.505  -0.637
X       7.645  16.653  -0.876
X       8.498  14.709   2.614
Al     15.831   0.373  13.509
Al     17.344   3.317  13.630
O      17.128   1.552  13.942
O      14.567   1.668  14.131
O      16.840   2.906  11.807
O      15.902   1.081  11.732
O      15.504   3.493  14.206
X      14.356   2.955  14.445
X      16.299   2.101  10.956
Al     11.237  15.187  -0.069
Al     14.170  13.657   0.069
O      12.406  13.885   0.373
O      12.537  16.445   0.554
O      13.770  14.157  -1.757
O      11.951  15.106  -1.843
O      14.356  15.497   0.639
X      13.824  16.649   0.873
X      12.972  14.700  -2.614
Al     16.350  10.268   0.052
Al     14.851  13.219  -0.052
O      15.058  11.455  -0.371
O      17.618  11.559  -0.571
O      15.361  12.799   1.767
O      16.291  10.970   1.832
O      16.688  13.389  -0.636
X      17.833  12.847  -0.882
X      15.902  11.989   2.613
Al     18.015  16.094  13.635
Al     20.954  14.574  13.504
O      19.780  15.872  13.942
O      18.362  15.623  11.813
O      19.599  13.342  14.129
O      17.777  14.284  14.210
O      20.184  14.681  11.732
X      19.222  15.051  10.956
X      18.371  13.103  14.443
Al      5.093  10.277  27.074
Al      6.623  13.210  27.204
O       6.395  11.447  27.513
O       3.835  11.579  27.694
O       6.122  12.805  25.379
O       5.173  10.986  25.299
O       4.784  13.398  27.774
X       3.631  12.867  28.010
X       5.579  12.004  24.525
Al     10.227  15.178  27.200
Al      7.284  13.665  27.078
O       9.048  13.882  26.767
O       8.932  16.443  26.579
O       7.694  14.169  28.901
O       9.519  15.106  28.977
O       7.107  15.505  26.502
X       7.645  16.653  26.263
X       8.498  14.709  29.753
Al     11.237  15.187  27.070
Al     14.170  13.657  27.208
O      12.406  13.885  27.512
O      12.537  16.445  27.693
O      13.770  14.157  25.382
O      11.951  15.106  25.296
O      14.356  15.497  27.779
X      13.824  16.649  28.012
X      12.972  14.700  24.526
Al     16.350  10.268  27.191
Al     14.851  13.219  27.087
O      15.058  11.455  26.768
O      17.618  11.559  26.568
O      15.361  12.799  28.906
O      16.291  10.970  28.971
O      16.688  13.389  26.503
X      17.833  12.847  26.257
X      15.902  11.989  29.752
X       2.360   4.364   4.234
H       1.897   2.549   8.952
H       1.944   2.394   6.486
H       2.695   6.602   6.236
H       2.648   6.756   8.703
X       2.270   4.662   8.981
C       2.072   3.436   8.358
C       2.098   3.349   6.971
X       2.323   4.488   6.207
C       2.521   5.714   6.831
C       2.494   5.801   8.218
H      -0.550   5.711   4.893
H      -2.563   6.496   3.692
H      -0.777   5.375  -0.034
H       1.236   4.590   1.167
X       0.468   5.102   3.105
C      -0.600   5.638   3.814
C      -1.732   6.079   3.139
X      -1.795   5.984   1.754
C      -0.727   5.449   1.044
C       0.404   5.007   1.719
X       2.360  15.473  22.905
H       0.151  15.382  18.335
H       0.193  15.539  20.801
H       4.456  15.136  20.755
H       4.414  14.979  18.288
X       2.280  15.171  18.158
C       1.093  15.328  18.865
C       1.117  15.416  20.251
X       2.327  15.347  20.932
C       3.513  15.190  20.225
C       3.490  15.102  18.838
H      -0.342  13.993  21.723
H      -2.489  13.073  22.531
H      -1.449  14.165  26.538
H       0.699  15.085  25.730
X       0.312  14.596  23.676
C      -0.584  14.030  22.777
C      -1.791  13.513  23.231
X      -2.103  13.562  24.585
C      -1.207  14.127  25.484
C       0.001  14.644  25.030
X       6.008  12.101  17.803
H       5.970   7.636  15.167
H       7.006   9.539  16.358
H       3.126  11.198  17.082
H       2.090   9.295  15.892
X       3.966   8.347  15.455
C       5.348   8.416  15.586
C       5.930   9.486  16.256
X       5.130  10.487  16.794
C       3.748  10.418  16.663
C       3.166   9.349  15.994
H       3.957  13.262  22.300
H       4.115  13.293  19.834
H       7.629  10.855  20.029
H       7.471  10.824  22.495
X       5.704  12.041  22.551
C       4.760  12.735  21.803
C       4.849  12.752  20.416
X       5.882  12.076  19.778
C       6.825  11.382  20.526
C       6.736  11.364  21.913
X       6.008   7.736   9.336
H       2.939  11.879   9.845
H       3.970   9.974   8.654
H       6.174   8.960  12.182
H       5.143  10.865  13.373
X       3.977  11.490  11.683
C       3.647  11.240  10.357
C       4.227  10.169   9.687
X       5.136   9.348  10.344
C       5.466   9.599  11.671
C       4.886  10.670  12.340
H       4.099   8.974   7.348
H       3.934   9.018   4.882
H       7.469   6.618   4.603
H       7.633   6.574   7.069
X       5.876   7.771   7.362
C       4.836   8.459   6.747
C       4.744   8.483   5.360
X       5.691   7.821   4.589
C       6.731   7.134   5.204
C       6.824   7.109   6.590
X       4.721   2.182  22.905
H       6.670   3.490  18.403
H       6.505   3.524  20.869
H       3.221   0.783  20.686
H       3.386   0.750  18.220
X       5.038   2.118  18.158
C       5.915   2.898  18.903
C       5.823   2.916  20.289
X       4.853   2.155  20.931
C       3.976   1.376  20.187
C       4.069   1.357  18.800
H       7.333   1.440  24.496
H       8.410  -0.612  25.354
H       5.195  -2.959  23.776
H       4.118  -0.906  22.917
X       5.659   0.395  23.653
C       6.865   0.477  24.338
C       7.471  -0.677  24.821
X       6.870  -1.914  24.618
C       5.663  -1.996  23.933
C       5.058  -0.842  23.451
X       4.721  17.655   4.234
H       3.162  18.777   8.934
H       3.002  18.744   6.468
H       6.716  16.623   6.256
H       6.876  16.657   8.722
X       5.029  17.719   8.982
C       3.940  18.305   8.348
C       3.850  18.287   6.961
X       4.849  17.681   6.208
C       5.938  17.095   6.842
C       6.028  17.113   8.229
H       6.448  20.198   4.852
H       7.469  22.045   3.565
H       5.907  20.382  -0.059
H       4.887  18.536   1.229
X       5.604  19.252   3.121
C       6.330  20.239   3.777
C       6.904  21.277   3.053
X       6.752  21.329   1.673
C       6.026  20.342   1.016
C       5.452  19.304   1.740
X       8.369   5.554  17.803
H       8.419   7.558  20.064
H       8.466   7.404  22.531
H       8.446   3.130  22.264
H       8.399   3.285  19.797
X       8.406   5.431  19.777
C       8.425   6.589  20.546
C       8.451   6.502  21.932
X       8.459   5.257  22.551
C       8.440   4.100  21.782
C       8.414   4.186  20.395
H      11.211   4.211  18.592
H      13.228   3.335  17.462
H      11.514   4.299  13.659
H       9.498   5.174  14.789
X      10.229   4.747  16.761
C      11.277   4.230  17.512
C      12.411   3.738  16.877
X      12.497   3.763  15.490
C      11.448   4.280  14.738
C      10.314   4.772  15.374
X       8.369  14.283   9.336
H      10.423  15.418   4.833
H      10.375  15.262   7.300
H       6.445  13.572   7.117
H       6.493  13.728   4.650
X       8.461  14.583   4.588
C       9.552  15.014   5.333
C       9.525  14.926   6.720
X       8.407  14.407   7.362
C       7.316  13.976   6.617
C       7.343  14.064   5.230
H       9.314  15.139  12.318
H      11.328  16.022  13.447
H      13.411  16.048   9.706
H      11.397  15.166   8.578
X      10.230  15.098  10.378
C      10.210  15.338  11.747
C      11.343  15.834  12.381
X      12.495  16.090  11.647
C      12.514  15.849  10.278
C      11.382  15.353   9.644
X      13.090   5.554   9.336
H       8.199   3.407   9.670
H      10.216   4.285   8.542
H      11.994   5.095  12.351
H       9.978   4.217  13.479
X       8.963   3.757  11.645
C       9.030   3.776  10.257
C      10.164   4.270   9.622
X      11.231   4.745  10.376
C      11.164   4.726  11.764
C      10.030   4.232  12.398
H      13.785   7.425   7.067
H      13.737   7.269   4.601
H      12.265   3.258   4.883
H      12.313   3.414   7.350
X      13.052   5.429   7.362
C      13.452   6.513   6.589
C      13.425   6.425   5.202
X      12.998   5.254   4.588
C      12.598   4.170   5.361
C      12.625   4.258   6.748
X      13.090  14.283  17.803
H      10.028  15.058  18.539
H       8.014  15.942  17.412
H      10.167  16.134  13.716
H      12.181  15.250  14.844
X      11.230  15.099  16.762
C      10.058  15.294  17.484
C       8.926  15.791  16.850
X       8.965  16.093  15.493
C      10.136  15.898  14.772
C      11.269  15.401  15.406
H      11.511  15.897  19.810
H      11.466  16.050  22.277
H      14.546  13.086  22.518
H      14.591  12.933  20.051
X      13.054  14.405  19.777
C      12.175  15.282  20.403
C      12.150  15.368  21.790
X      13.003  14.578  22.551
C      13.882  13.702  21.925
C      13.907  13.615  20.538
X      15.450   7.736  17.803
H      13.499   8.207  20.062
H      13.660   8.243  22.528
H      17.842   7.365  22.267
H      17.681   7.329  19.801
X      15.580   7.766  19.778
C      14.449   8.023  20.544
C      14.540   8.043  21.931
X      15.761   7.806  22.551
C      16.892   7.549  21.784
C      16.801   7.529  20.398
H      14.748  10.717  17.284
H      15.783  12.620  16.093
H      19.074  10.123  14.965
H      18.038   8.220  16.156
X      16.328   9.350  16.794
C      15.695  10.587  16.776
C      16.277  11.657  16.107
X      17.493  11.490  15.455
C      18.127  10.253  15.473
C      17.545   9.183  16.142
X      15.450  12.101   9.336
H      17.400  13.398   4.833
H      17.235  13.432   7.299
H      13.951  10.691   7.117
H      14.116  10.658   4.651
X      15.768  12.026   4.588
C      16.645  12.806   5.333
C      16.552  12.824   6.720
X      15.583  12.063   7.362
C      14.706  11.283   6.617
C      14.798  11.265   5.230
H      15.688   9.035   8.899
H      16.724   7.132  10.089
H      18.134   9.799  13.127
H      17.098  11.702  11.938
X      16.329  10.487  10.344
C      16.224   9.202   9.825
C      16.806   8.132  10.494
X      17.494   8.347  11.682
C      17.599   9.631  12.202
C      17.017  10.702  11.533
X      16.738   2.182   4.234
H      17.952   0.613   8.907
H      18.112   0.643   6.441
H      15.088   3.669   6.281
H      14.927   3.639   8.748
X      16.430   2.124   8.981
C      17.325   1.282   8.333
C      17.415   1.299   6.946
X      16.610   2.158   6.208
C      15.714   3.000   6.856
C      15.624   2.983   8.243
H      17.528  -0.733   3.390
H      16.507  -2.580   2.103
H      13.036  -0.174   1.403
H      14.056   1.673   2.690
X      15.856   0.585   3.121
C      16.545  -0.611   2.955
C      15.971  -1.649   2.232
X      14.708  -1.492   1.673
C      14.019  -0.297   1.838
C      14.593   0.742   2.562
X      16.738  17.655  22.905
H      14.750  16.414  18.401
H      14.913  16.372  20.867
H      18.281  19.010  20.688
H      18.117  19.051  18.222
X      16.423  17.735  18.158
C      15.522  16.982  18.902
C      15.614  16.958  20.288
X      16.607  17.688  20.931
C      17.508  18.442  20.188
C      17.416  18.465  18.801
H      16.984  20.756  22.418
H      15.918  22.815  23.273
H      13.435  20.461  25.847
H      14.501  18.401  24.991
X      15.809  19.450  23.651
C      16.207  20.691  23.168
C      15.608  21.849  23.650
X      14.610  21.766  24.614
C      14.212  20.525  25.096
C      14.811  19.367  24.615
X      19.098   4.364  22.905
H      21.152   5.499  18.403
H      21.104   5.344  20.869
H      17.174   3.654  20.686
H      17.222   3.810  18.220
X      19.190   4.664  18.158
C      20.281   5.095  18.903
C      20.254   5.008  20.290
X      19.136   4.489  20.932
C      18.045   4.058  20.187
C      18.072   4.145  18.800
H      21.134   6.891  22.303
H      23.281   7.811  23.111
H      23.573   4.627  25.958
H      21.426   3.707  25.150
X      21.146   5.242  23.676
C      21.668   6.395  23.103
C      22.875   6.912  23.557
X      23.561   6.276  24.585
C      23.040   5.123  25.158
C      21.832   4.605  24.704
X      19.098  15.473   4.234
H      19.192  13.050   8.694
H      19.146  13.204   6.228
H      19.130  17.477   6.495
H      19.175  17.323   8.961
X      19.187  15.177   8.981
C      19.178  14.019   8.213
C      19.153  14.105   6.826
X      19.135  15.350   6.207
C      19.143  16.508   6.976
C      19.169  16.421   8.363
H      20.030  14.708   1.189
H      22.046  13.928  -0.011
H      24.225  13.894   3.674
H      22.209  14.674   4.874
X      20.994  14.739   3.106
C      20.948  14.530   1.733
C      22.082  14.091   1.058
X      23.261  13.863   1.757
C      23.307  14.072   3.130
C      22.174  14.511   3.804
