258
generated by MOF_BUILD
Cu      8.799  10.000  10.000
Cu     11.201  10.000  10.000
O      -1.016   1.772  10.000
O       1.016   1.772  10.000
C       0.000   2.295  10.000
O      -1.016   8.228  10.000
O       1.016   8.228  10.000
C       0.000   7.705  10.000
C      -1.084   4.361  10.181
C       0.000   3.701  10.000
C       1.078   4.373   9.820
C       1.084   5.640   9.819
C       0.000   6.299  10.000
C      -1.078   5.627  10.180
F      -2.151   6.196  10.360
H      -1.939   3.885  10.325
H       1.939   6.115   9.675
F       2.151   3.804   9.640
O      -1.016  -8.228  10.000
O       1.016  -8.228  10.000
C       0.000  -7.705  10.000
O      -1.016  -1.772  10.000
O       1.016  -1.772  10.000
C       0.000  -2.295  10.000
C       1.095  -5.639  10.095
C       0.000  -6.299  10.000
C      -1.089  -5.627   9.905
C      -1.095  -4.360   9.905
C       0.000  -3.701  10.000
C       1.089  -4.373  10.095
F       2.173  -3.804  10.189
H       1.959  -6.115  10.170
H      -1.959  -3.885   9.830
F      -2.173  -6.196   9.811
O       0.000   1.016  18.228
O       0.000  -1.016  18.228
C       0.000   0.000  17.705
O      -1.015  -0.000  11.772
O       1.016   0.000  11.772
C       0.000   0.000  12.295
C      -1.096  -0.082  15.640
C       0.000   0.000  16.299
C       1.090   0.082  15.627
C       1.096   0.083  14.361
C       0.000   0.000  13.701
C      -1.090  -0.082  14.373
F      -2.175  -0.164  13.804
H      -1.961  -0.148  16.115
H       1.961   0.148  13.885
F       2.175   0.164  16.196
O      -0.000   1.016   1.772
O      -0.000  -1.016   1.772
C       0.000   0.000   2.295
O      -1.016   0.000   8.228
O       1.016   0.000   8.228
C       0.000   0.000   7.705
C       0.859  -0.685   4.360
C       0.000   0.000   3.701
C      -0.855   0.681   4.373
C      -0.859   0.685   5.640
C       0.000   0.000   6.299
C       0.855  -0.681   5.627
F       1.705  -1.359   6.196
H       1.538  -1.226   3.885
H      -1.538   1.226   6.115
F      -1.705   1.359   3.804
O      -1.016  10.000  11.772
O       1.016  10.000  11.772
C       0.000  10.000  12.295
O       0.000  11.016  18.228
O       0.000   8.984  18.228
C       0.000  10.000  17.705
C      -1.010  10.432  14.361
C       0.000  10.000  13.701
C       1.005   9.570  14.373
C       1.011   9.568  15.640
C       0.000  10.000  16.299
C      -1.005  10.430  15.627
F      -2.005  10.858  16.196
H      -1.808  10.773  13.885
H       1.808   9.227  16.115
F       2.005   9.142  13.804
O      -0.000  11.016   1.772
O      -0.000   8.984   1.772
C       0.000  10.000   2.295
O      -1.015  10.000   8.228
O       1.016  10.000   8.228
C       0.000  10.000   7.705
C       1.059   9.704   4.360
C       0.000  10.000   3.701
C      -1.053  10.294   4.373
C      -1.058  10.296   5.640
C       0.000  10.000   6.299
C       1.053   9.706   5.627
F       2.101   9.413   6.196
H       1.894   9.471   3.885
H      -1.894  10.529   6.115
F      -2.101  10.587   3.804
O       8.984  21.772  10.000
O      11.016  21.772  10.000
C      10.000  22.295  10.000
O       8.984  28.228  10.000
O      11.016  28.228  10.000
C      10.000  27.705  10.000
C       9.950  24.361  11.098
C      10.000  23.701  10.000
C      10.049  24.373   8.908
C      10.050  25.640   8.902
C      10.000  26.299  10.000
C       9.951  25.627  11.092
F       9.902  26.196  12.179
H       9.911  23.885  11.964
H      10.089  26.115   8.035
F      10.099  23.804   7.821
O       8.984  18.228  10.000
O      11.016  18.228  10.000
C      10.000  17.705  10.000
O       8.984  11.772  10.000
O      11.016  11.772  10.000
C      10.000  12.295  10.000
C      10.363  15.640   8.962
C      10.000  16.299  10.000
C       9.640  15.627  11.032
C       9.638  14.361  11.038
C      10.000  13.701  10.000
C      10.361  14.373   8.968
F      10.719  13.804   7.941
H      10.649  16.115   8.144
H       9.352  13.885  11.856
F       9.281  16.196  12.059
O       8.985  20.000  11.772
O      11.016  20.000  11.772
C      10.000  20.000  12.295
O      10.000  21.016  18.228
O      10.000  18.985  18.228
C      10.000  20.000  17.705
C      11.072  19.756  14.360
C      10.000  20.000  13.701
C       8.934  20.243  14.373
C       8.929  20.244  15.639
C      10.000  20.000  16.299
C      11.066  19.757  15.627
F      12.126  19.515  16.196
H      11.917  19.563  13.885
H       8.083  20.437  16.115
F       7.874  20.485  13.804
O       8.984  20.000   8.228
O      11.016  20.000   8.228
C      10.000  20.000   7.705
O      10.000  21.016   1.772
O      10.000  18.984   1.772
C      10.000  20.000   2.295
C       9.536  20.996   5.639
C      10.000  20.000   6.298
C      10.462  19.009   5.627
C      10.464  19.004   4.360
C      10.000  20.000   3.701
C       9.538  20.991   4.373
F       9.079  21.977   3.804
H       9.170  21.783   6.115
H      10.830  18.217   3.885
F      10.921  18.023   6.196
O       8.984  10.000  11.772
O      11.016  10.000  11.772
C      10.000  10.000  12.295
O      10.000  11.016  18.228
O      10.000   8.984  18.228
C      10.000  10.000  17.705
C      11.099  10.027  15.640
C      10.000  10.000  16.299
C       8.907   9.974  15.627
C       8.901   9.973  14.360
C      10.000  10.000  13.701
C      11.093  10.026  14.373
F      12.180  10.053  13.804
H      11.966  10.048  16.115
H       8.034   9.953  13.885
F       7.820   9.947  16.196
O       8.985  10.000   8.228
O      11.016  10.000   8.228
C      10.000  10.000   7.705
O      10.000  11.016   1.772
O      10.000   8.984   1.772
C      10.000  10.000   2.295
C      10.818  10.734   5.639
C      10.000  10.000   6.299
C       9.186   9.270   5.627
C       9.182   9.266   4.360
C      10.000  10.000   3.701
C      10.814  10.730   4.373
F      11.624  11.456   3.804
H      11.464  11.313   6.115
H       8.536   8.687   3.885
F       8.376   8.544   6.196
O      28.228  21.016  -0.000
O      28.228  18.984  -0.000
C      27.705  20.000  -0.000
O      21.772  21.016  -0.000
O      21.772  18.984  -0.000
C      22.295  20.000  -0.000
C      25.640  18.998  -0.452
C      26.299  20.000  -0.000
C      25.627  20.997   0.449
C      24.360  21.002   0.451
C      23.701  20.000  -0.000
C      24.373  19.003  -0.449
F      23.804  18.012  -0.896
H      26.115  18.207  -0.808
H      23.885  21.793   0.808
F      26.196  21.988   0.896
O      18.228  21.016  -0.000
O      18.228  18.984  -0.000
C      17.705  20.000  -0.000
O      11.772  21.016  -0.000
O      11.772  18.984  -0.000
C      12.295  20.000  -0.000
C      15.640  18.978   0.404
C      16.299  20.000  -0.000
C      15.627  21.017  -0.402
C      14.360  21.022  -0.404
C      13.701  20.000  -0.000
C      14.373  18.983   0.402
F      13.804  17.972   0.802
H      16.115  18.171   0.723
H      13.885  21.829  -0.723
F      16.196  22.028  -0.802
O       8.228  11.016  -0.000
O       8.228   8.984  -0.000
C       7.705  10.000  -0.000
O       1.772  11.016  -0.000
O       1.772   8.984  -0.000
C       2.295  10.000  -0.000
C       5.640  10.505   0.976
C       6.299  10.000  -0.000
C       5.627   9.498  -0.971
C       4.360   9.495  -0.976
C       3.701  10.000  -0.000
C       4.373  10.502   0.971
F       3.804  11.002   1.937
H       6.115  10.904   1.746
H       3.885   9.096  -1.747
F       6.196   8.998  -1.937
O      -1.772  11.016  -0.000
O      -1.772   8.984   0.000
C      -2.295  10.000  -0.000
O      -8.228  11.016  -0.000
O      -8.228   8.984   0.000
C      -7.705  10.000  -0.000
C      -4.360   9.162   0.711
C      -3.701  10.000  -0.000
C      -4.373  10.834  -0.707
C      -5.640  10.838  -0.711
C      -6.299  10.000  -0.000
C      -5.627   9.166   0.707
F      -6.196   8.336   1.410
H      -3.885   8.500   1.272
H      -6.115  11.500  -1.272
F      -3.804  11.664  -1.410
