74
generated by MOF_BUILD
N      29.792  39.112  12.967
N      31.910  39.141  10.979
N      30.071  39.158   8.722
N      27.953  39.129  10.718
C      30.887  39.107  13.793
C      28.599  39.101  13.642
C      31.259  39.169   8.003
C      28.989  39.163   7.854
C      32.638  39.132  12.067
C      32.807  39.155   9.924
C      27.088  39.116  11.702
C      27.202  39.139   9.555
C      30.322  39.091  15.136
C      28.983  39.087  15.048
C      30.908  39.182   6.665
C      29.511  39.178   6.573
C      34.088  39.140  11.820
C      34.136  39.154  10.496
C      25.683  39.115  11.267
C      25.810  39.129   9.947
C      32.199  39.115  13.503
C      27.336  39.101  13.183
C      27.607  39.154   8.262
C      32.575  39.168   8.589
H      30.866  39.084  16.065
H      28.321  39.076  15.897
H      31.584  39.193   5.822
H      28.952  39.186   5.648
H      34.908  39.135  12.511
H      35.058  39.163   9.938
H      24.780  39.106  11.844
H      24.968  39.133   9.274
H      29.859  39.123  11.953
H      30.005  39.147   9.734
C      33.080  38.727   6.303
C      33.478  39.006   7.619
C      34.856  39.106   7.873
C      35.798  38.939   6.870
C      35.401  38.660   5.554
C      34.023  38.560   5.300
F      33.568  38.295   4.063
H      32.029  38.640   6.056
H      36.849  39.026   7.117
F      35.311  39.370   9.110
C      24.609  39.110  15.787
C      23.446  39.150  15.003
C      23.605  39.173  13.608
C      24.858  39.157  13.014
C      26.021  39.118  13.798
C      25.862  39.094  15.193
F      26.930  39.055  16.008
H      24.539  39.090  16.868
H      24.927  39.177  11.934
F      22.536  39.212  12.794
C      32.977  37.531  17.414
C      34.372  37.391  17.470
C      35.107  37.770  16.334
C      34.490  38.264  15.195
C      33.095  38.404  15.140
C      32.360  38.026  16.275
F      31.021  38.132  16.295
H      32.366  37.253  18.264
H      35.102  38.542  14.345
F      36.447  37.664  16.315
C      25.219  38.113   7.690
C      26.375  38.757   7.225
C      26.447  39.049   5.853
C      25.420  38.720   4.980
C      24.264  38.076   5.446
C      24.192  37.784   6.818
F      23.116  37.168   7.336
H      25.116  37.866   8.740
H      25.523  38.967   3.931
F      27.524  39.665   5.335
