738
generated by MOF_BUILD
Cu     -1.201  -0.000  10.000
Cu      1.201   0.000  10.000
C       0.000   2.295  10.000
C       0.000  -2.295  10.000
C       0.000   0.000  12.295
C       0.000   0.000   7.705
Cu     -1.201  10.000  10.000
Cu      1.201  10.000  10.000
C       0.000   7.705  10.000
C       0.000  12.295  10.000
C       0.000  10.000   7.705
C       0.000  10.000  12.295
Cu      8.799  20.000  10.000
Cu     11.201  20.000  10.000
C      10.000  22.295  10.000
C      10.000  17.705  10.000
C      10.000  20.000  12.295
C      10.000  20.000   7.705
Cu      8.799  10.000  10.000
Cu     11.201  10.000  10.000
C      10.000   7.705  10.000
C      10.000  12.295  10.000
C      10.000  10.000   7.705
C      10.000  10.000  12.295
Cu     20.000  21.201  -0.000
Cu     20.000  18.799  -0.000
C      17.705  20.000  -0.000
C      22.295  20.000  -0.000
C      20.000  20.000  -2.295
C      20.000  20.000   2.295
Cu      0.000  11.201  -0.000
Cu     -0.000   8.799   0.000
C      -2.295  10.000  -0.000
C       2.295  10.000  -0.000
C      -0.000  10.000  -2.295
C       0.000  10.000   2.295
Cu     10.000  21.201  -0.000
Cu     10.000  18.799  -0.000
C      12.295  20.000  -0.000
C       7.705  20.000  -0.000
C      10.000  20.000   2.295
C      10.000  20.000  -2.295
Cu     10.000  11.201  20.000
Cu     10.000   8.799  20.000
C       7.705  10.000  20.000
C      12.295  10.000  20.000
C      10.000  10.000  17.705
C      10.000  10.000  22.295
O      -1.016   1.772  10.000
O       1.016   1.772  10.000
C       0.000   2.295  10.000
O      -1.016   8.228  10.000
O       1.016   8.228  10.000
C       0.000   7.705  10.000
C      -1.084   4.361  10.181
C       0.000   3.701  10.000
C       1.078   4.373   9.820
C       1.084   5.640   9.819
C       0.000   6.299  10.000
C      -1.078   5.627  10.180
F      -2.151   6.196  10.360
H      -1.939   3.885  10.325
H       1.939   6.115   9.675
F       2.151   3.804   9.640
O       0.000   1.016  18.228
O       0.000  -1.016  18.228
C       0.000   0.000  17.705
O      -1.015  -0.000  11.772
O       1.016   0.000  11.772
C       0.000   0.000  12.295
C      -1.096  -0.082  15.640
C       0.000   0.000  16.299
C       1.090   0.082  15.627
C       1.096   0.083  14.361
C       0.000   0.000  13.701
C      -1.090  -0.082  14.373
F      -2.175  -0.164  13.804
H      -1.961  -0.148  16.115
H       1.961   0.148  13.885
F       2.175   0.164  16.196
O      -0.000   1.016   1.772
O      -0.000  -1.016   1.772
C       0.000   0.000   2.295
O      -1.016   0.000   8.228
O       1.016   0.000   8.228
C       0.000   0.000   7.705
C       0.859  -0.685   4.360
C       0.000   0.000   3.701
C      -0.855   0.681   4.373
C      -0.859   0.685   5.640
C       0.000   0.000   6.299
C       0.855  -0.681   5.627
F       1.705  -1.359   6.196
H       1.538  -1.226   3.885
H      -1.538   1.226   6.115
F      -1.705   1.359   3.804
O      -1.016  10.000  11.772
O       1.016  10.000  11.772
C       0.000  10.000  12.295
O       0.000  11.016  18.228
O       0.000   8.984  18.228
C       0.000  10.000  17.705
C      -1.010  10.432  14.361
C       0.000  10.000  13.701
C       1.005   9.570  14.373
C       1.011   9.568  15.640
C       0.000  10.000  16.299
C      -1.005  10.430  15.627
F      -2.005  10.858  16.196
H      -1.808  10.773  13.885
H       1.808   9.227  16.115
F       2.005   9.142  13.804
O      -0.000  11.016   1.772
O      -0.000   8.984   1.772
C       0.000  10.000   2.295
O      -1.015  10.000   8.228
O       1.016  10.000   8.228
C       0.000  10.000   7.705
C       1.059   9.704   4.360
C       0.000  10.000   3.701
C      -1.053  10.294   4.373
C      -1.058  10.296   5.640
C       0.000  10.000   6.299
C       1.053   9.706   5.627
F       2.101   9.413   6.196
H       1.894   9.471   3.885
H      -1.894  10.529   6.115
F      -2.101  10.587   3.804
O       8.984  18.228  10.000
O      11.016  18.228  10.000
C      10.000  17.705  10.000
O       8.984  11.772  10.000
O      11.016  11.772  10.000
C      10.000  12.295  10.000
C      10.363  15.640   8.962
C      10.000  16.299  10.000
C       9.640  15.627  11.032
C       9.638  14.361  11.038
C      10.000  13.701  10.000
C      10.361  14.373   8.968
F      10.719  13.804   7.941
H      10.649  16.115   8.144
H       9.352  13.885  11.856
F       9.281  16.196  12.059
O       8.985  20.000  11.772
O      11.016  20.000  11.772
C      10.000  20.000  12.295
O      10.000  21.016  18.228
O      10.000  18.985  18.228
C      10.000  20.000  17.705
C      11.072  19.756  14.360
C      10.000  20.000  13.701
C       8.934  20.243  14.373
C       8.929  20.244  15.639
C      10.000  20.000  16.299
C      11.066  19.757  15.627
F      12.126  19.515  16.196
H      11.917  19.563  13.885
H       8.083  20.437  16.115
F       7.874  20.485  13.804
O       8.984  20.000   8.228
O      11.016  20.000   8.228
C      10.000  20.000   7.705
O      10.000  21.016   1.772
O      10.000  18.984   1.772
C      10.000  20.000   2.295
C       9.536  20.996   5.639
C      10.000  20.000   6.298
C      10.462  19.009   5.627
C      10.464  19.004   4.360
C      10.000  20.000   3.701
C       9.538  20.991   4.373
F       9.079  21.977   3.804
H       9.170  21.783   6.115
H      10.830  18.217   3.885
F      10.921  18.023   6.196
O       8.984  10.000  11.772
O      11.016  10.000  11.772
C      10.000  10.000  12.295
O      10.000  11.016  18.228
O      10.000   8.984  18.228
C      10.000  10.000  17.705
C      11.099  10.027  15.640
C      10.000  10.000  16.299
C       8.907   9.974  15.627
C       8.901   9.973  14.360
C      10.000  10.000  13.701
C      11.093  10.026  14.373
F      12.180  10.053  13.804
H      11.966  10.048  16.115
H       8.034   9.953  13.885
F       7.820   9.947  16.196
O       8.985  10.000   8.228
O      11.016  10.000   8.228
C      10.000  10.000   7.705
O      10.000  11.016   1.772
O      10.000   8.984   1.772
C      10.000  10.000   2.295
C      10.818  10.734   5.639
C      10.000  10.000   6.299
C       9.186   9.270   5.627
C       9.182   9.266   4.360
C      10.000  10.000   3.701
C      10.814  10.730   4.373
F      11.624  11.456   3.804
H      11.464  11.313   6.115
H       8.536   8.687   3.885
F       8.376   8.544   6.196
O      18.228  21.016  -0.000
O      18.228  18.984  -0.000
C      17.705  20.000  -0.000
O      11.772  21.016  -0.000
O      11.772  18.984  -0.000
C      12.295  20.000  -0.000
C      15.640  18.978   0.404
C      16.299  20.000  -0.000
C      15.627  21.017  -0.402
C      14.360  21.022  -0.404
C      13.701  20.000  -0.000
C      14.373  18.983   0.402
F      13.804  17.972   0.802
H      16.115  18.171   0.723
H      13.885  21.829  -0.723
F      16.196  22.028  -0.802
O       8.228  11.016  -0.000
O       8.228   8.984  -0.000
C       7.705  10.000  -0.000
O       1.772  11.016  -0.000
O       1.772   8.984  -0.000
C       2.295  10.000  -0.000
C       5.640  10.505   0.976
C       6.299  10.000  -0.000
C       5.627   9.498  -0.971
C       4.360   9.495  -0.976
C       3.701  10.000  -0.000
C       4.373  10.502   0.971
F       3.804  11.002   1.937
H       6.115  10.904   1.746
H       3.885   9.096  -1.747
F       6.196   8.998  -1.937
Cu     -1.201  20.000  10.000
Cu      1.201  20.000  10.000
C       0.000  22.295  10.000
C       0.000  17.705  10.000
C       0.000  20.000  12.295
C       0.000  20.000   7.705
Cu     18.799  -0.000  10.000
Cu     21.201   0.000  10.000
C      20.000   2.295  10.000
C      20.000  -2.295  10.000
C      20.000   0.000  12.295
C      20.000   0.000   7.705
Cu     18.799  20.000  10.000
Cu     21.201  20.000  10.000
C      20.000  22.295  10.000
C      20.000  17.705  10.000
C      20.000  20.000  12.295
C      20.000  20.000   7.705
Cu     18.799  10.000  10.000
Cu     21.201  10.000  10.000
C      20.000   7.705  10.000
C      20.000  12.295  10.000
C      20.000  10.000   7.705
C      20.000  10.000  12.295
Cu      8.799  -0.000  10.000
Cu     11.201   0.000  10.000
C      10.000   2.295  10.000
C      10.000  -2.295  10.000
C      10.000   0.000  12.295
C      10.000   0.000   7.705
Cu      0.000  21.201  -0.000
Cu     -0.000  18.799  -0.000
C      -2.295  20.000  -0.000
C       2.295  20.000  -0.000
C      -0.000  20.000  -2.295
C       0.000  20.000   2.295
Cu     20.000   1.201  -0.000
Cu     20.000  -1.201  -0.000
C      17.705  -0.000  -0.000
C      22.295  -0.000  -0.000
C      20.000  -0.000  -2.295
C      20.000   0.000   2.295
Cu      0.000   1.201  -0.000
Cu     -0.000  -1.201  -0.000
C      -2.295  -0.000  -0.000
C       2.295  -0.000  -0.000
C      -0.000  -0.000  -2.295
C       0.000   0.000   2.295
Cu     20.000  21.201  20.000
Cu     20.000  18.799  20.000
C      17.705  20.000  20.000
C      22.295  20.000  20.000
C      20.000  20.000  17.705
C      20.000  20.000  22.295
Cu      0.000  21.201  20.000
Cu     -0.000  18.799  20.000
C      -2.295  20.000  20.000
C       2.295  20.000  20.000
C      -0.000  20.000  17.705
C       0.000  20.000  22.295
Cu     20.000   1.201  20.000
Cu     20.000  -1.201  20.000
C      17.705  -0.000  20.000
C      22.295  -0.000  20.000
C      20.000  -0.000  17.705
C      20.000   0.000  22.295
Cu      0.000   1.201  20.000
Cu     -0.000  -1.201  20.000
C      -2.295  -0.000  20.000
C       2.295  -0.000  20.000
C      -0.000  -0.000  17.705
C       0.000   0.000  22.295
Cu      0.000  11.201  20.000
Cu     -0.000   8.799  20.000
C      -2.295  10.000  20.000
C       2.295  10.000  20.000
C      -0.000  10.000  17.705
C       0.000  10.000  22.295
Cu     20.000  11.201  -0.000
Cu     20.000   8.799   0.000
C      17.705  10.000  -0.000
C      22.295  10.000  -0.000
C      20.000  10.000  -2.295
C      20.000  10.000   2.295
Cu     20.000  11.201  20.000
Cu     20.000   8.799  20.000
C      17.705  10.000  20.000
C      22.295  10.000  20.000
C      20.000  10.000  17.705
C      20.000  10.000  22.295
Cu     10.000   1.201  -0.000
Cu     10.000  -1.201  -0.000
C      12.295  -0.000  -0.000
C       7.705  -0.000  -0.000
C      10.000   0.000   2.295
C      10.000  -0.000  -2.295
Cu     10.000  21.201  20.000
Cu     10.000  18.799  20.000
C      12.295  20.000  20.000
C       7.705  20.000  20.000
C      10.000  20.000  22.295
C      10.000  20.000  17.705
Cu     10.000   1.201  20.000
Cu     10.000  -1.201  20.000
C      12.295  -0.000  20.000
C       7.705  -0.000  20.000
C      10.000   0.000  22.295
C      10.000  -0.000  17.705
Cu     10.000  11.201  -0.000
Cu     10.000   8.799  -0.000
C       7.705  10.000  -0.000
C      12.295  10.000  -0.000
C      10.000  10.000  -2.295
C      10.000  10.000   2.295
O      18.984   1.772  10.000
O      21.016   1.772  10.000
C      20.000   2.295  10.000
O      18.984   8.228  10.000
O      21.016   8.228  10.000
C      20.000   7.705  10.000
C      18.916   4.361  10.181
C      20.000   3.701  10.000
C      21.078   4.373   9.820
C      21.084   5.640   9.819
C      20.000   6.299  10.000
C      18.922   5.627  10.180
F      17.849   6.196  10.360
H      18.061   3.885  10.325
H      21.939   6.115   9.675
F      22.151   3.804   9.640
O      -1.016  11.772  10.000
O       1.016  11.772  10.000
C       0.000  12.295  10.000
O      -1.016  18.228  10.000
O       1.016  18.228  10.000
C       0.000  17.705  10.000
C       1.095  14.361  10.095
C       0.000  13.701  10.000
C      -1.089  14.373   9.905
C      -1.095  15.640   9.905
C       0.000  16.299  10.000
C       1.089  15.627  10.095
F       2.173  16.196  10.189
H       1.959  13.885  10.170
H      -1.959  16.115   9.830
F      -2.173  13.804   9.811
O      18.984  11.772  10.000
O      21.016  11.772  10.000
C      20.000  12.295  10.000
O      18.984  18.228  10.000
O      21.016  18.228  10.000
C      20.000  17.705  10.000
C      21.095  14.361  10.095
C      20.000  13.701  10.000
C      18.911  14.373   9.905
C      18.905  15.640   9.905
C      20.000  16.299  10.000
C      21.089  15.627  10.095
F      22.173  16.196  10.189
H      21.959  13.885  10.170
H      18.041  16.115   9.830
F      17.827  13.804   9.811
O       0.000  21.016  18.228
O       0.000  18.984  18.228
C       0.000  20.000  17.705
O      -1.015  20.000  11.772
O       1.016  20.000  11.772
C       0.000  20.000  12.295
C      -1.096  19.918  15.640
C       0.000  20.000  16.299
C       1.090  20.082  15.627
C       1.096  20.083  14.361
C       0.000  20.000  13.701
C      -1.090  19.918  14.373
F      -2.175  19.836  13.804
H      -1.961  19.852  16.115
H       1.961  20.148  13.885
F       2.175  20.164  16.196
O      20.000   1.016  18.228
O      20.000  -1.016  18.228
C      20.000   0.000  17.705
O      18.985  -0.000  11.772
O      21.016   0.000  11.772
C      20.000   0.000  12.295
C      18.904  -0.082  15.640
C      20.000   0.000  16.299
C      21.090   0.082  15.627
C      21.096   0.083  14.361
C      20.000   0.000  13.701
C      18.910  -0.082  14.373
F      17.825  -0.164  13.804
H      18.039  -0.148  16.115
H      21.961   0.148  13.885
F      22.175   0.164  16.196
O      20.000  21.016  18.228
O      20.000  18.984  18.228
C      20.000  20.000  17.705
O      18.985  20.000  11.772
O      21.016  20.000  11.772
C      20.000  20.000  12.295
C      18.904  19.918  15.640
C      20.000  20.000  16.299
C      21.090  20.082  15.627
C      21.096  20.083  14.361
C      20.000  20.000  13.701
C      18.910  19.918  14.373
F      17.825  19.836  13.804
H      18.039  19.852  16.115
H      21.961  20.148  13.885
F      22.175  20.164  16.196
O      -0.000  21.016   1.772
O      -0.000  18.984   1.772
C       0.000  20.000   2.295
O      -1.016  20.000   8.228
O       1.016  20.000   8.228
C       0.000  20.000   7.705
C       0.859  19.315   4.360
C       0.000  20.000   3.701
C      -0.855  20.681   4.373
C      -0.859  20.685   5.640
C       0.000  20.000   6.299
C       0.855  19.319   5.627
F       1.705  18.641   6.196
H       1.538  18.774   3.885
H      -1.538  21.226   6.115
F      -1.705  21.359   3.804
O      20.000   1.016   1.772
O      20.000  -1.016   1.772
C      20.000   0.000   2.295
O      18.984   0.000   8.228
O      21.016   0.000   8.228
C      20.000   0.000   7.705
C      20.859  -0.685   4.360
C      20.000   0.000   3.701
C      19.145   0.681   4.373
C      19.141   0.685   5.640
C      20.000   0.000   6.299
C      20.855  -0.681   5.627
F      21.705  -1.359   6.196
H      21.538  -1.226   3.885
H      18.462   1.226   6.115
F      18.295   1.359   3.804
O      20.000  21.016   1.772
O      20.000  18.984   1.772
C      20.000  20.000   2.295
O      18.984  20.000   8.228
O      21.016  20.000   8.228
C      20.000  20.000   7.705
C      20.859  19.315   4.360
C      20.000  20.000   3.701
C      19.145  20.681   4.373
C      19.141  20.685   5.640
C      20.000  20.000   6.299
C      20.855  19.319   5.627
F      21.705  18.641   6.196
H      21.538  18.774   3.885
H      18.462  21.226   6.115
F      18.295  21.359   3.804
O      18.984  10.000  11.772
O      21.016  10.000  11.772
C      20.000  10.000  12.295
O      20.000  11.016  18.228
O      20.000   8.984  18.228
C      20.000  10.000  17.705
C      18.990  10.432  14.361
C      20.000  10.000  13.701
C      21.005   9.570  14.373
C      21.011   9.568  15.640
C      20.000  10.000  16.299
C      18.995  10.430  15.627
F      17.995  10.858  16.196
H      18.192  10.773  13.885
H      21.808   9.227  16.115
F      22.005   9.142  13.804
O      20.000  11.016   1.772
O      20.000   8.984   1.772
C      20.000  10.000   2.295
O      18.985  10.000   8.228
O      21.016  10.000   8.228
C      20.000  10.000   7.705
C      21.059   9.704   4.360
C      20.000  10.000   3.701
C      18.947  10.294   4.373
C      18.942  10.296   5.640
C      20.000  10.000   6.299
C      21.053   9.706   5.627
F      22.101   9.413   6.196
H      21.894   9.471   3.885
H      18.106  10.529   6.115
F      17.899  10.587   3.804
O       8.984   1.772  10.000
O      11.016   1.772  10.000
C      10.000   2.295  10.000
O       8.984   8.228  10.000
O      11.016   8.228  10.000
C      10.000   7.705  10.000
C       9.950   4.361  11.098
C      10.000   3.701  10.000
C      10.049   4.373   8.908
C      10.050   5.640   8.902
C      10.000   6.299  10.000
C       9.951   5.627  11.092
F       9.902   6.196  12.179
H       9.911   3.885  11.964
H      10.089   6.115   8.035
F      10.099   3.804   7.821
O       8.985  -0.000  11.772
O      11.016   0.000  11.772
C      10.000   0.000  12.295
O      10.000   1.016  18.228
O      10.000  -1.015  18.228
C      10.000   0.000  17.705
C      11.072  -0.244  14.360
C      10.000   0.000  13.701
C       8.934   0.243  14.373
C       8.929   0.244  15.639
C      10.000   0.000  16.299
C      11.066  -0.243  15.627
F      12.126  -0.485  16.196
H      11.917  -0.437  13.885
H       8.083   0.437  16.115
F       7.874   0.485  13.804
O       8.984   0.000   8.228
O      11.016   0.000   8.228
C      10.000   0.000   7.705
O      10.000   1.016   1.772
O      10.000  -1.016   1.772
C      10.000   0.000   2.295
C       9.536   0.996   5.639
C      10.000   0.000   6.298
C      10.462  -0.991   5.627
C      10.464  -0.996   4.360
C      10.000   0.000   3.701
C       9.538   0.991   4.373
F       9.079   1.977   3.804
H       9.170   1.783   6.115
H      10.830  -1.783   3.885
F      10.921  -1.977   6.196
O       8.228  21.016  -0.000
O       8.228  18.984  -0.000
C       7.705  20.000  -0.000
O       1.772  21.016  -0.000
O       1.772  18.984  -0.000
C       2.295  20.000  -0.000
C       5.640  18.998  -0.452
C       6.299  20.000  -0.000
C       5.627  20.997   0.449
C       4.360  21.002   0.451
C       3.701  20.000  -0.000
C       4.373  19.003  -0.449
F       3.804  18.012  -0.896
H       6.115  18.207  -0.808
H       3.885  21.793   0.808
F       6.196  21.988   0.896
O       8.228   1.016  -0.000
O       8.228  -1.016  -0.000
C       7.705  -0.000  -0.000
O       1.772   1.016  -0.000
O       1.772  -1.016  -0.000
C       2.295  -0.000  -0.000
C       5.640  -1.002  -0.452
C       6.299  -0.000  -0.000
C       5.627   0.997   0.449
C       4.360   1.002   0.451
C       3.701  -0.000  -0.000
C       4.373  -0.997  -0.449
F       3.804  -1.988  -0.896
H       6.115  -1.793  -0.808
H       3.885   1.793   0.808
F       6.196   1.988   0.896
O       8.228  21.016  20.000
O       8.228  18.984  20.000
C       7.705  20.000  20.000
O       1.772  21.016  20.000
O       1.772  18.984  20.000
C       2.295  20.000  20.000
C       5.640  18.998  19.548
C       6.299  20.000  20.000
C       5.627  20.997  20.449
C       4.360  21.002  20.452
C       3.701  20.000  20.000
C       4.373  19.003  19.551
F       3.804  18.012  19.104
H       6.115  18.207  19.192
H       3.885  21.793  20.808
F       6.196  21.988  20.896
O       8.228   1.016  20.000
O       8.228  -1.016  20.000
C       7.705  -0.000  20.000
O       1.772   1.016  20.000
O       1.772  -1.016  20.000
C       2.295  -0.000  20.000
C       5.640  -1.002  19.548
C       6.299  -0.000  20.000
C       5.627   0.997  20.449
C       4.360   1.002  20.452
C       3.701  -0.000  20.000
C       4.373  -0.997  19.551
F       3.804  -1.988  19.104
H       6.115  -1.793  19.192
H       3.885   1.793  20.808
F       6.196   1.988  20.896
O      18.228   1.016  -0.000
O      18.228  -1.016  -0.000
C      17.705  -0.000  -0.000
O      11.772   1.016  -0.000
O      11.772  -1.016  -0.000
C      12.295  -0.000  -0.000
C      15.640  -1.022   0.404
C      16.299  -0.000  -0.000
C      15.627   1.017  -0.402
C      14.360   1.022  -0.404
C      13.701  -0.000  -0.000
C      14.373  -1.017   0.402
F      13.804  -2.028   0.802
H      16.115  -1.829   0.723
H      13.885   1.829  -0.723
F      16.196   2.028  -0.802
O      18.228  21.016  20.000
O      18.228  18.984  20.000
C      17.705  20.000  20.000
O      11.772  21.016  20.000
O      11.772  18.984  20.000
C      12.295  20.000  20.000
C      15.640  18.978  20.404
C      16.299  20.000  20.000
C      15.627  21.017  19.598
C      14.360  21.022  19.596
C      13.701  20.000  20.000
C      14.373  18.983  20.402
F      13.804  17.972  20.802
H      16.115  18.171  20.723
H      13.885  21.829  19.277
F      16.196  22.028  19.198
O      18.228   1.016  20.000
O      18.228  -1.016  20.000
C      17.705  -0.000  20.000
O      11.772   1.016  20.000
O      11.772  -1.016  20.000
C      12.295  -0.000  20.000
C      15.640  -1.022  20.404
C      16.299  -0.000  20.000
C      15.627   1.017  19.598
C      14.360   1.022  19.596
C      13.701  -0.000  20.000
C      14.373  -1.017  20.402
F      13.804  -2.028  20.802
H      16.115  -1.829  20.723
H      13.885   1.829  19.277
F      16.196   2.028  19.198
O       8.228  11.016  20.000
O       8.228   8.984  20.000
C       7.705  10.000  20.000
O       1.772  11.016  20.000
O       1.772   8.984  20.000
C       2.295  10.000  20.000
C       5.640  10.505  20.976
C       6.299  10.000  20.000
C       5.627   9.498  19.029
C       4.360   9.495  19.024
C       3.701  10.000  20.000
C       4.373  10.502  20.971
F       3.804  11.002  21.937
H       6.115  10.904  21.747
H       3.885   9.096  18.254
F       6.196   8.998  18.063
O      18.228  11.016  -0.000
O      18.228   8.984   0.000
C      17.705  10.000  -0.000
O      11.772  11.016  -0.000
O      11.772   8.984   0.000
C      12.295  10.000  -0.000
C      15.640   9.162   0.711
C      16.299  10.000  -0.000
C      15.627  10.834  -0.707
C      14.360  10.838  -0.711
C      13.701  10.000  -0.000
C      14.373   9.166   0.707
F      13.804   8.336   1.410
H      16.115   8.500   1.272
H      13.885  11.500  -1.272
F      16.196  11.664  -1.410
O      18.228  11.016  20.000
O      18.228   8.984  20.000
C      17.705  10.000  20.000
O      11.772  11.016  20.000
O      11.772   8.984  20.000
C      12.295  10.000  20.000
C      15.640   9.162  20.711
C      16.299  10.000  20.000
C      15.627  10.834  19.293
C      14.360  10.838  19.289
C      13.701  10.000  20.000
C      14.373   9.166  20.707
F      13.804   8.336  21.410
H      16.115   8.500  21.272
H      13.885  11.500  18.729
F      16.196  11.664  18.590
