888
Optimized structure
Al   0.50371850 5.26141955 13.50672504
Al   3.44471726 3.74459207 13.63239496
O   1.68034077 3.96408040 13.94224553
O   1.79997714 6.52490352 14.12809025
O   3.03594635 4.24681357 11.80844696
O   1.21252605 5.18724715 11.73053157
O   3.62339744 5.58446994 14.20600564
X   3.08743547 6.73385644 14.44362724
X   2.23283905 4.78789642 10.95577081
X   2.36047790 4.36414660 4.23370272
Al   3.46840317 16.08849664 13.51162608
Al   0.52295037 14.57955174 13.62749392
O   1.70415572 15.87448268 13.19724432
O   3.11290139 15.61403442 15.33131754
O   1.87607048 13.34388129 13.00436401
O   3.70225228 14.27942767 12.93252590
O   1.28671959 14.67848804 15.40315565
X   2.24741695 15.04333711 16.18338275
X   3.10477710 13.10181353 12.69373267
X   2.36047790 15.47288340 22.90541728
Al   5.09309435 10.27661094 -0.06462401
Al   6.62345959 13.21043258 0.06462401
O   6.39522188 11.44698440 0.37343623
O   3.83469101 11.57853007 0.55521511
O   6.12226407 12.80471085 -1.76028675
O   5.17343707 10.98574038 -1.84042058
O   4.78351801 13.39750055 0.63534893
X   3.63125628 12.86683164 0.87091633
X   5.57880154 12.00446887 -2.61414261
X   6.00848920 12.10058830 17.80326272
X   6.00848920 7.73644170 9.33585728
Al   5.62101817 0.36957860 13.62271503
Al   4.12131789 3.32010898 13.51640497
O   4.32840490 1.55560911 13.19881703
O   6.88882751 1.66050895 12.99907151
O   4.63122918 2.90152684 15.33598894
O   5.56104389 1.07219694 15.40190122
O   5.95901280 3.48983885 12.93315923
X   7.10379481 2.94785200 12.68712473
X   5.17219720 2.09200316 16.18264920
X   4.72095580 2.18207330 22.90541728
Al   4.11728670 16.53941757 13.63740940
Al   5.62504936 19.48462891 13.50171060
O   4.33102905 18.30563999 13.94069064
O   4.58955449 16.88388587 11.81502699
O   6.86190904 18.13579885 14.13174392
O   5.92709564 16.30976676 14.21587723
O   5.52436789 18.70991796 11.73089368
X   5.15897495 17.74431240 10.95700578
X   7.10476736 16.90911073 14.44965061
X   4.72095580 17.65495670 4.23370272
Al   7.28562240 6.17568246 0.06250309
Al   10.22483184 4.65533592 -0.06250309
O   9.04982063 5.95443565 0.37211800
O   7.63457965 5.70171871 -1.75858454
O   8.86848762 3.42432825 0.56284228
O   7.04617671 4.36694364 0.64034616
O   9.45689056 4.75910331 -1.83608841
X   8.49562621 5.12852035 -2.61346250
X   7.63964508 3.18675191 0.87638986
Al   6.60550637 6.61676158 -0.04874008
Al   5.11104757 9.57025490 0.04874008
O   6.40151540 8.38065227 -0.37167080
O   6.12640250 6.98271153 1.76766105
O   3.87077751 8.22062009 -0.57280834
O   4.79734250 6.38945317 -0.63324607
O   5.19983751 8.81387845 1.82809879
X   5.55706684 7.85482638 2.61385633
X   3.62361241 6.99178182 -0.87887125
X   8.36896710 5.55436840 17.80326272
Al   10.22688027 15.17781555 0.06134599
Al   7.28357397 13.66522607 -0.06134599
O   9.04811397 13.88180017 -0.37231410
O   8.93217485 16.44261667 -0.56057760
O   7.69402651 14.16860635 1.76190478
O   9.51887747 15.10641237 1.83797386
O   7.10732388 15.50481064 -0.63664667
X   7.64486525 16.65317133 -0.87565630
X   8.49837283 14.70932370 2.61364436
X   8.36896710 14.28266160 9.33585728
X   13.08992290 5.55436840 9.33585728
X   13.08992290 14.28266160 17.80326272
Al   14.17359902 6.17516875 -0.06093579
Al   11.23372674 4.65584963 0.06093579
O   12.40955513 5.95476371 -0.37202696
O   13.82307407 5.70026930 1.75960691
O   12.59008774 3.42470073 -0.56409510
O   14.41280961 4.36667913 -0.63965552
O   12.00035220 4.75829090 1.83516733
X   12.96116071 5.12689278 2.61349133
X   13.81908044 3.18684807 -0.87684364
Al   15.83149298 0.37313140 13.50882752
Al   17.34395096 3.31655618 13.63029248
O   17.12753603 1.55210096 13.94185193
O   14.56675274 1.66796181 14.13061469
O   16.84021161 2.90551253 11.80727406
O   15.90248712 1.08058811 11.73196574
O   15.50447723 3.49288623 14.20592301
X   14.35619521 2.95535764 14.44533896
X   16.29935922 2.10087380 10.95589647
Al   17.33960463 16.53776340 13.51722978
Al   15.83583931 19.48628308 13.62189022
O   17.12960523 18.30158390 13.19778585
O   16.86146251 16.89884201 15.33485881
O   14.59915733 18.13383739 12.99930312
O   15.53149237 16.30575412 12.93441361
O   15.92912747 18.72692528 15.39974832
X   16.29033686 17.76757690 16.18332157
X   14.35555840 16.90478032 12.69126598
Al   11.23685722 15.18653552 -0.06886011
Al   14.17046854 13.65650610 0.06886011
O   12.40617037 13.88468035 0.37282622
O   12.53697441 16.44528909 0.55404253
O   13.76962862 14.15700835 -1.75731930
O   11.95078854 15.10562714 -1.84270588
O   14.35581448 15.49667030 0.63942911
X   13.82439865 16.64896391 0.87314951
X   12.97164282 14.70008626 -2.61352818
X   15.45040080 7.73644170 17.80326272
Al   16.35033498 10.26815860 0.05223611
Al   14.85089108 13.21888492 -0.05223611
O   15.05773539 11.45452552 -0.37076124
O   17.61812105 11.55928218 -0.57105460
O   15.36118926 12.79933784 1.76701715
O   16.29084502 10.96988646 1.83178996
O   16.68846530 13.38873356 -0.63582741
X   17.83313790 12.84676171 -0.88240342
X   15.90227869 11.98933633 2.61314265
X   15.45040080 12.10058830 9.33585728
Al   20.95545739 5.26094468 13.63142608
Al   18.01388685 3.74506694 13.50769392
O   19.77832251 3.96354701 13.19746792
O   19.65962333 6.52420094 13.00871372
O   18.42297467 4.24921469 15.33103935
O   20.24674946 5.18905944 15.40775334
O   17.83584854 5.58435619 12.93199974
X   18.37222007 6.73327212 12.69303043
X   19.22634375 4.79097062 16.18304124
Al   18.01495556 16.09373321 13.63500837
Al   20.95438868 14.57431517 13.50411163
O   19.77954906 15.87237685 13.94228359
O   18.36200628 15.62300667 11.81271716
O   19.59903385 13.34189938 14.12882835
O   17.77658425 14.28393912 14.20998438
O   20.18445588 14.68096694 11.73156113
X   19.22224143 15.05149688 10.95589400
X   18.37059679 13.10348392 14.44332642
X   16.73793420 2.18207330 4.23370272
X   16.73793420 17.65495670 22.90541728
X   19.09841210 4.36414660 22.90541728
X   19.09841210 15.47288340 4.23370272
Al   14.84065694 6.62405058 0.06832993
Al   16.36056912 9.56296590 -0.06832993
O   15.06210117 8.38929655 0.37177025
O   15.31241990 6.96694977 -1.75447911
O   17.59245124 8.20883828 0.56008967
O   16.65010515 6.38670972 0.64481883
O   16.25476600 8.78907834 -1.83920827
X   15.88451738 7.82518112 -2.61291798
X   17.83051942 6.98107499 0.87746865
H   1.89707991 2.54865317 8.95240444
H   1.94425920 2.39381505 6.48586073
H   2.69524794 6.60155905 6.23619479
H   2.64801366 6.75627410 8.70278129
X   2.26964601 4.66210010 8.98118450
C   2.07181465 3.43568467 8.35785626
C   2.09833754 3.34864693 6.97108567
X   2.32271530 4.48801810 6.20742104
C   2.52051419 5.71441575 6.83065639
C   2.49402378 5.80147127 8.21751987
H   0.15146675 15.38190946 18.33494617
H   0.19326808 15.53883409 20.80145503
H   4.45555764 15.13617945 20.75472540
H   4.41362028 14.97923379 18.28818408
X   2.27994534 15.17083706 18.15797427
C   1.09349050 15.32817375 18.86461436
C   1.11700838 15.41639448 20.25136442
X   2.32699715 15.34730920 20.93169529
C   3.51343295 15.18994867 20.22515043
C   3.48993411 15.10175178 18.83830514
H   4.09906167 8.97436472 7.34773779
H   3.93411529 9.01817334 4.88178724
H   7.46852130 6.61784210 4.60284143
H   7.63337785 6.57413350 7.06883589
X   5.87647100 7.77148946 7.36184126
C   4.83649343 8.45856829 6.74691079
C   4.74377215 8.48319446 5.36047362
X   5.69101249 7.82072512 4.58874451
C   6.73098691 7.13368408 5.20358246
C   6.82371134 7.10902012 6.59011216
H   8.19935733 3.40692105 9.66969056
H   10.21586162 4.28499706 8.54153649
H   11.99420829 5.09519251 12.35106313
H   9.97760666 4.21710731 13.47911501
X   8.96293076 3.75730276 11.64465385
C   9.02999001 3.77640997 10.25652268
C   10.16373747 4.27010069 9.62225313
X   11.23061887 4.74474914 10.37602274
C   11.16361554 4.72570063 11.76409536
C   10.02981216 4.23195121 12.39842346
H   3.16227115 18.77679681 8.93432469
H   3.00223912 18.74368914 6.46788348
H   6.71583233 16.62341855 6.25550440
H   6.87576677 16.65661994 8.72198680
X   5.02896674 17.71873683 8.98174153
C   3.93999943 18.30545804 8.34796036
C   3.85004146 18.28684073 6.96124746
X   4.84903693 17.68147858 6.20809380
C   5.93799842 17.09479240 6.84178148
C   6.02796221 17.11337468 8.22858787
H   11.21099897 4.21050467 18.59224950
H   13.22755290 3.33508992 17.46211769
H   11.51426485 4.29902022 13.65857866
H   9.49772165 5.17438921 14.78884385
X   10.22880549 4.74699289 16.76091990
C   11.27744339 4.22989358 17.51240976
C   12.41120525 3.73770596 16.87699879
X   12.49651396 3.76255726 15.48998742
C   11.44794598 4.27959086 14.73846940
C   10.31411419 4.77184419 15.37390853
H   9.31352670 15.13917726 12.31843314
H   11.32804023 16.02156496 13.44677963
H   13.41122140 16.04838487 9.70631661
H   11.39662365 15.16595409 8.57807524
X   10.22962115 15.09765475 10.37798511
C   10.21041107 15.33823425 11.74675194
C   11.34304459 15.83433542 12.38113088
X   12.49506929 16.08995315 11.64683232
C   12.51435664 15.84937725 10.27812888
C   11.38164585 15.35327247 9.64368655
H   17.95157770 0.61270460 8.90731267
H   18.11183493 0.64281997 6.44084773
H   15.08754470 3.66931553 6.28141135
H   14.92735697 3.63908340 8.74791549
X   16.42951365 2.12404611 8.98120176
C   17.32477260 1.28172328 8.33253095
C   17.41485861 1.29866264 6.94580485
X   16.60970503 2.15794759 6.20752796
C   15.71444237 3.00023664 6.85610472
C   15.62436006 2.98333106 8.24292487
H   14.74775117 10.71671688 17.28382447
H   15.78311037 12.61961767 16.09343019
H   19.07351833 10.12332286 14.96508879
H   18.03805698 8.22048009 16.15556179
X   16.32841561 9.35009521 16.79378684
C   15.69452033 10.58688136 16.77626606
C   16.27664771 11.65674472 16.10698898
X   17.49276328 11.48998252 15.45510785
C   18.12669924 10.25328669 15.47261487
C   17.54453117 9.18333302 16.14190572
H   15.68843682 9.03506889 8.89937363
H   16.72445404 7.13195062 10.08884739
H   18.13443224 9.79869587 13.12724466
H   17.09838270 11.70176336 11.93764293
X   16.32886619 10.48691807 10.34446045
C   16.22377269 9.20214568 9.82476301
C   16.80626490 8.13216302 10.49353175
X   17.49393249 8.34678551 11.68212175
C   17.59908595 9.63147948 12.20183516
C   17.01653377 10.70154056 11.53305045
H   19.19200481 13.04966996 8.69416645
H   19.14620493 13.20356758 6.22753788
H   19.12955513 17.47672143 6.49456910
H   19.17532474 17.32268858 8.96122591
X   19.18655413 15.17659762 8.98129146
C   19.17837794 14.01860474 8.21268505
C   19.15262194 14.10514728 6.82586901
X   19.13505562 15.34970731 6.20743754
C   19.14319853 16.50768810 6.97595043
C   19.16898781 16.42115764 8.36285999
H   5.97002442 7.63642327 15.16722751
H   7.00575253 9.53918508 16.35752302
H   3.12564617 11.19792590 17.08194016
H   2.09002533 9.29510075 15.89157773
X   3.96552726 8.34725939 15.45531584
C   5.34751141 8.41594242 15.58636008
C   5.92981617 9.48574505 16.25557994
X   5.13021939 10.48703120 16.79387979
C   3.74829215 10.41842907 16.66285022
C   3.16593048 9.34854554 15.99361569
H   -0.55030455 5.71112370 4.89287956
H   -2.56322096 6.49588004 3.69189513
H   -0.77686042 5.37510812 -0.03425745
H   1.23604250 4.59040384 1.16685778
X   0.46819784 5.10186289 3.10465533
C   -0.59995907 5.63756297 3.81446967
C   -1.73167561 6.07877896 3.13922316
X   -1.79541922 5.98434665 1.75404628
C   -0.72733284 5.44870963 1.04419957
C   0.40445423 5.00743058 1.71947845
H   2.93939324 11.87853974 9.84522239
H   3.97027154 9.97376058 8.65394372
H   6.17378253 8.95988349 12.18211878
H   5.14284427 10.86474056 13.37329578
X   3.97689905 11.49022746 11.68345170
C   3.64728563 11.23967106 10.35667114
C   4.22689106 10.16874306 9.68690816
X   5.13619503 9.34818689 10.34383248
C   5.46586187 9.59869440 11.67054408
C   4.88620302 10.66967130 12.34037603
H   -0.34153273 13.99256079 21.72294761
H   -2.48903986 13.07310651 22.53094240
H   -1.44890684 14.16535096 26.53800517
H   0.69861284 15.08475662 25.72987818
X   0.31224855 14.59594645 23.67609572
C   -0.58397300 14.03039275 22.77681483
C   -1.79136343 13.51344529 23.23111140
X   -2.10273079 13.56198721 24.58476932
C   -1.20658087 14.12747348 25.48406820
C   0.00088119 14.64448836 25.02975363
H   0.90295777 11.73573641 2.21585130
H   -1.11280456 12.61247184 3.34637147
H   0.36802344 16.60387639 2.89110794
H   2.38378372 15.72700186 1.76061321
X   1.76887446 13.67677909 1.91780208
C   0.78580707 12.80123194 2.36363373
C   -0.34751035 13.29417546 2.99925155
X   -0.49794646 14.66275632 3.18912282
C   0.48505347 15.53831771 2.74336361
C   1.61843835 15.04535995 2.10767335
H   7.22657459 10.52375418 -4.66248476
H   7.38683182 10.55386955 -7.12894971
H   4.36254159 13.58036511 -7.28838609
H   4.20235386 13.55013298 -4.82188195
X   5.70451054 12.03509569 -4.58859568
C   6.59976949 11.19277286 -5.23726649
C   6.68985550 11.20971222 -6.62399259
X   5.88470192 12.06899717 -7.36226948
C   4.98943926 12.91128622 -6.71369272
C   4.89935695 12.89438064 -5.32687257
H   3.95650983 13.26155297 22.30037704
H   4.11481908 13.29272388 19.83379942
H   7.62902792 10.85473366 20.02864977
H   7.47062497 10.82366394 22.49525877
X   5.70368937 12.04063596 22.55140892
C   4.76027880 12.73474824 21.80310764
C   4.84930211 12.75226890 20.41632014
X   5.88174897 12.07565949 19.77761139
C   6.82516890 11.38158449 20.52582034
C   6.73613624 11.36402654 21.91270017
H   6.67016098 3.49015641 18.40264411
H   6.50534270 3.52357797 20.86876587
H   3.22096812 0.78295518 20.68629103
H   3.38587083 0.74964249 18.22013732
X   5.03830195 2.11778872 18.15782833
C   5.91527310 2.89761066 18.90252257
C   5.82259069 2.91639524 20.28905379
X   4.85292537 2.15534048 20.93111338
C   3.97594144 1.37555547 20.18651119
C   4.06863663 1.35673397 18.79988792
H   7.33286257 1.44016760 24.49573296
H   8.40975392 -0.61246759 25.35423888
H   5.19528685 -2.95904105 23.77556184
H   4.11846411 -0.90629984 22.91711960
X   5.65862340 0.39474611 23.65293475
C   6.86506906 0.47727353 24.33809768
C   7.47051646 -0.67679182 24.82077598
X   6.86961595 -1.91357709 24.61834951
C   5.66320850 -1.99616899 23.93325276
C   5.05772289 -0.84203916 23.45050827
H   10.02774570 15.05842914 18.53929919
H   8.01356219 15.94234292 17.41155816
H   10.16684616 16.13357949 13.71585479
H   12.18100117 15.24967623 14.84373394
X   11.22978562 15.09897691 16.76173129
C   10.05812573 15.29372617 17.48357337
C   8.92569753 15.79069679 16.84950848
X   8.96474807 16.09298176 15.49348689
C   10.13633222 15.89829454 14.77162446
C   11.26883616 15.40126188 15.40570971
H   6.44796757 20.19828135 4.85200490
H   7.46883274 22.04511579 3.56473046
H   5.90747463 20.38245002 -0.05868369
H   4.88666936 18.53562337 1.22871862
X   5.60371794 19.25197048 3.12052287
C   6.32966309 20.23866024 3.77719410
C   6.90362485 21.27699988 3.05343282
X   6.75171476 21.32882151 1.67287730
C   6.02584096 20.34219121 1.01616902
C   5.45180785 19.30379210 1.73996735
H   8.62141264 0.53796920 2.16866033
H   7.58652030 -1.36569693 3.35823659
H   3.73929554 0.46692625 2.94377233
H   4.77432669 2.37057805 1.75421901
X   6.76230587 1.57279694 1.88733255
C   7.55285136 0.52235103 2.33829971
C   6.97098789 -0.54794094 3.00712084
X   5.59847379 -0.56796227 3.22506552
C   4.80790939 0.48241924 2.77417248
C   5.38979177 1.55277561 2.10527723
H   8.46397542 3.12892333 -4.87529294
H   8.41817554 3.28282095 -7.34192151
H   8.40152574 7.55597480 -7.07489028
H   8.44729535 7.40194195 -4.60823348
X   8.45852473 5.25585099 -4.58816793
C   8.45034855 4.09785811 -5.35677434
C   8.42459254 4.18440065 -6.74359038
X   8.40702623 5.42896068 -7.36202185
C   8.41516913 6.58694147 -6.59350896
C   8.44095842 6.50041101 -5.20659940
H   2.57281724 4.20107665 -2.15683723
H   0.55905189 3.31675315 -3.28500374
H   -1.30957120 7.15507802 -2.95799206
H   0.70426958 8.03928688 -1.82979138
X   1.76395342 6.17525915 -1.92309695
C   1.72305894 4.84759503 -2.33224949
C   0.59084650 4.35041343 -2.96653425
X   -0.50065075 5.18083047 -3.19178295
C   -0.45983652 6.50843706 -2.78264626
C   0.67245616 7.00567619 -2.14834565
H   8.41925548 7.55779816 20.06403964
H   8.46604781 7.40353240 22.53062659
H   8.44614599 3.13038964 22.26364048
H   8.39932215 3.28479058 19.79702647
X   8.40641249 5.43089901 19.77693897
C   8.42518453 6.58878529 20.54552022
C   8.45148680 6.50203575 21.93231308
X   8.45903887 5.25737533 22.55074585
C   8.44023705 4.09950107 21.78225931
C   8.41396456 4.18623859 20.39537175
H   10.42286895 15.41780181 4.83346837
H   10.37506616 15.26196081 7.29993691
H   6.44532484 13.57226919 7.11690118
H   6.49323800 13.72819381 4.65040394
X   8.46104378 14.58266714 4.58834831
C   9.55233577 15.01383473 5.33329559
C   9.52544212 14.92621477 6.72002238
X   8.40724938 14.40739277 7.36202270
C   7.31595934 13.97625531 6.61717076
C   7.34285104 14.06384514 5.23034863
H   8.24910160 19.67746384 -1.24255222
H   7.21240081 21.58002731 -2.43231788
H   4.11686049 18.99459123 -3.86918154
H   5.15368989 17.09207387 -2.67937933
X   6.76592917 18.26630404 -1.88684972
C   7.34464485 19.52806431 -1.81742821
C   6.76176991 20.59773497 -2.48636259
X   5.60006849 20.40581394 -3.22481491
C   5.02134393 19.14412957 -3.29430093
C   5.60422775 18.07438302 -2.62530205
H   13.78486978 7.42490074 7.06715381
H   13.73728745 7.26877891 4.60069876
H   12.26527282 3.25818477 4.88307134
H   12.31293113 3.41442272 7.34955369
X   13.05182781 5.42939504 7.36193877
C   13.45224077 6.51295929 6.58906870
C   13.42548824 6.42516521 5.20235020
X   12.99829821 5.25378890 4.58828023
C   12.59791925 4.17022451 5.36105626
C   12.62463777 4.25801873 6.74786880
H   11.51092566 15.89698077 19.81027164
H   11.46578523 16.05046957 22.27693784
H   14.54603133 13.08642229 22.51763340
H   14.59105484 12.93300077 20.05092477
X   13.05382804 14.40545910 19.77699886
C   12.17523507 15.28187984 20.40288323
C   12.14986350 15.36816058 21.78972267
X   13.00310079 14.57803971 22.55089995
C   13.88165731 13.70161431 21.92510859
C   13.90706532 13.61533823 20.53817614
H   13.66126504 1.96179869 -3.72484564
H   14.69214334 0.05701952 -4.91612432
H   16.89565433 -0.95685756 -1.38794925
H   15.86471607 0.94799950 -0.19677225
X   14.69877085 1.57348641 -1.88661634
C   14.36915743 1.32293001 -3.21339689
C   14.94876286 0.25200200 -3.88315988
X   15.85806683 -0.56855416 -3.22623555
C   16.18773367 -0.31804665 -1.89952396
C   15.60807482 0.75293024 -1.22969201
H   14.74954751 16.41369593 18.40114941
H   14.91304173 16.37199711 20.86723324
H   18.28074770 19.00980328 20.68845457
H   18.11716572 19.05139595 18.22233865
X   16.42315394 17.73517278 18.15818404
C   15.52238498 16.98192763 18.90182857
C   15.61432315 16.95848880 20.28833847
X   16.60704255 17.68831186 20.93142648
C   17.50782313 18.44151959 20.18787395
C   17.41587334 18.46499584 18.80127205
H   16.70322460 17.55323718 1.59720851
H   17.73895271 19.45599899 2.78750402
H   13.85884635 21.11473981 3.51192116
H   12.82322551 19.21191466 2.32155873
X   14.69872744 18.26407330 1.88529685
C   16.08071160 18.33275633 2.01634108
C   16.66301635 19.40255896 2.68556094
X   15.86341957 20.40384511 3.22386079
C   14.48149233 20.33524298 3.09283123
C   13.89913066 19.26535945 2.42359670
H   12.63120122 12.46400694 -4.61702465
H   12.67838051 12.30916882 -7.08356836
H   13.42936925 16.51691282 -7.33323430
H   13.38213497 16.67162787 -4.86664780
X   13.00376732 14.57745387 -4.58824459
C   12.80593596 13.35103843 -5.21157283
C   12.83245885 13.26400069 -6.59834342
X   13.05683662 14.40337186 -7.36200805
C   13.25463551 15.62976951 -6.73877271
C   13.22814509 15.71682504 -5.35190922
H   13.49861916 8.20679460 20.06161544
H   13.66010254 8.24316579 22.52791608
H   17.84249229 7.36514716 22.26690657
H   17.68087014 7.32877195 19.80057896
X   15.57969804 7.76555482 19.77752062
C   14.44935767 8.02262914 20.54434106
C   14.54016366 8.04306914 21.93097302
X   15.76133861 7.80645320 22.55100555
C   16.89166129 7.54935293 21.78428005
C   16.80087299 7.52893888 20.39755315
H   17.39992428 13.39808037 4.83311082
H   17.23510600 13.43150193 7.29923259
H   13.95073142 10.69087914 7.11675774
H   14.11563413 10.65756644 4.65060403
X   15.76806525 12.02571268 4.58829504
C   16.64503640 12.80553461 5.33298928
C   16.55235399 12.82431919 6.71952050
X   15.58268867 12.06326444 7.36158009
C   14.70570474 11.28347943 6.61697791
C   14.79839993 11.26465793 5.23035463
H   18.92875109 13.31563399 -3.89985354
H   20.94525538 14.19371000 -5.02800761
H   22.72360205 15.00390545 -1.21848097
H   20.70700043 14.12582025 -0.09042909
X   19.69232452 13.66601570 -1.92489025
C   19.75938377 13.68512291 -3.31302141
C   20.89313124 14.17881363 -3.94729097
X   21.96001263 14.65346208 -3.19352135
C   21.89300930 14.63441357 -1.80544873
C   20.75920592 14.14066415 -1.17112063
H   21.15157778 5.49936837 18.40294718
H   21.10377500 5.34352737 20.86941573
H   17.17403368 3.65383575 20.68637999
H   17.22194684 3.80976037 18.21988276
X   19.18975262 4.66423371 18.15782712
C   20.28104461 5.09540129 18.90277440
C   20.25415096 5.00778133 20.28950119
X   19.13595822 4.48895933 20.93150152
C   18.04466818 4.05782187 20.18664957
C   18.07155987 4.14541170 18.79982745
H   17.52767806 -0.73316172 3.39049855
H   16.50725855 -2.58020550 2.10317111
H   13.03572786 -0.17407553 1.40285693
H   14.05625710 1.67290922 2.69025126
X   15.85552313 0.58490236 3.12050465
C   16.54453456 -0.61082953 2.95540274
C   15.97080646 -1.64928920 2.23162841
X   14.70797368 -1.49217107 1.67282346
C   14.01892505 -0.29653001 1.83790624
C   14.59269035 0.74202049 2.56169970
H   16.98404138 20.75551842 22.41780400
H   15.91826700 22.81511917 23.27349572
H   13.43523551 20.46085776 25.84709913
H   14.50108087 18.40129832 24.99129228
X   15.80895154 19.45015941 23.65129233
C   16.20733057 20.69108299 23.16841244
C   15.60810471 21.84904676 23.64951531
X   14.61040984 21.76626764 24.61359430
C   14.21197908 20.52542962 25.09647298
C   14.81125668 19.36738028 24.61537131
H   21.13396808 6.89061611 22.30250181
H   23.28123126 7.81061214 23.11052828
H   23.57343137 4.62700415 25.95845489
H   21.42611238 3.70711114 25.15034923
X   21.14634955 5.24155412 23.67608581
C   21.66795975 6.39518887 23.10265767
C   22.87521780 6.91243093 23.55697074
X   23.56106846 6.27610335 24.58477995
C   23.03952248 5.12253406 25.15824797
C   21.83220021 4.60522655 24.70389502
H   20.02994849 14.70782956 1.18852423
H   22.04569530 13.92799795 -0.01091984
H   24.22524749 13.89420913 3.67416323
H   22.20941220 14.67408300 4.87350540
X   20.99415103 14.73948053 3.10571056
C   20.94819681 14.52969537 1.73252137
C   22.08152386 14.09125456 1.05816896
X   23.26098727 13.86251182 1.75690963
C   23.30701716 14.07229774 3.13003344
C   22.17361444 14.51073779 3.80445122
H   20.75534585 5.13515384 4.96842831
H   18.74116233 6.01906761 3.84068728
H   20.89444630 6.21030419 0.14498391
H   22.90860131 5.32640092 1.27286306
X   21.95738577 5.17570161 3.19086041
C   20.78572587 5.37045087 3.91270249
C   19.65329768 5.86742149 3.27863760
X   19.69234822 6.16970646 1.92261601
C   20.86393237 5.97501924 1.20075358
C   21.99643631 5.47798658 1.83483883
H   13.88976638 8.85797780 -4.63541606
H   13.72973436 8.82487012 -7.10185727
H   17.44332756 6.70459953 -7.31423635
H   17.60326201 6.73780092 -4.84775395
X   15.75646198 7.79991781 -4.58799922
C   14.66749466 8.38663902 -5.22178039
C   14.57753669 8.36802171 -6.60849329
X   15.57653216 7.76265957 -7.36164695
C   16.66549365 7.17597338 -6.72795926
C   16.75545745 7.19455567 -5.34115288
H   2.57395175 4.19786035 24.98344131
H   0.56018640 3.31353684 23.85527480
H   -1.30843669 7.15186171 24.18228649
H   0.70540409 8.03607058 25.31048716
X   1.76508793 6.17204284 25.21718160
C   1.72419345 4.84437873 24.80802906
C   0.59198101 4.34719712 24.17374429
X   -0.49951624 5.17761416 23.94849559
C   -0.45870201 6.50522075 24.35763228
C   0.67359067 7.00245989 24.99193290
H   4.02112152 6.49521857 31.97082766
H   4.18461575 6.45351975 34.43691149
H   7.55232172 9.09132592 34.25813283
H   7.38873974 9.13291859 31.79201690
X   5.69472796 7.81669542 31.72786229
C   4.79395900 7.06345027 32.47150682
C   4.88589717 7.04001144 33.85801672
X   5.87861657 7.76983450 34.50110473
C   6.77939715 8.52304223 33.75755221
C   6.68744736 8.54651848 32.37095030
H   8.24647708 19.67594188 25.89602898
H   7.20977629 21.57850534 24.70626331
H   4.11423597 18.99306927 23.26939966
H   5.15106536 17.09055191 24.45920187
X   6.76330464 18.26478208 25.25173148
C   7.34202032 19.52654234 25.32115299
C   6.75914539 20.59621300 24.65221861
X   5.59744397 20.40429198 23.91376629
C   5.01871941 19.14260761 23.84428027
C   5.60160322 18.07286105 24.51327915
H   10.42046440 15.41706234 31.97243144
H   10.37266162 15.26122134 34.43889999
H   6.44292030 13.57152972 34.25586425
H   6.49083346 13.72745434 31.78936702
X   8.45863924 14.58192767 31.72731138
C   9.54993123 15.01309526 32.47225866
C   9.52303758 14.92547530 33.85898545
X   8.40484484 14.40665330 34.50098578
C   7.31355480 13.97551584 33.75613383
C   7.34044650 14.06310567 32.36931171
H   0.90332497 11.73317813 29.35917033
H   -1.11243735 12.60991357 30.48969050
H   0.36839064 16.60131811 30.03442696
H   2.38415092 15.72444358 28.90393223
X   1.76924166 13.67422081 29.06112111
C   0.78617427 12.79867366 29.50695275
C   -0.34714315 13.29161718 30.14257057
X   -0.49757926 14.66019805 30.33244184
C   0.48542067 15.53575944 29.88668263
C   1.61880555 15.04280167 29.25099237
H   8.61950913 0.53838346 29.30640824
H   7.58461679 -1.36528268 30.49598451
H   3.73739203 0.46734050 30.08152024
H   4.77242319 2.37099231 28.89196692
X   6.76040237 1.57321119 29.02508046
C   7.55094786 0.52276528 29.47604762
C   6.96908438 -0.54752669 30.14486875
X   5.59657028 -0.56754801 30.36281344
C   4.80600588 0.48283349 29.91192040
C   5.38788827 1.55318987 29.24302515
H   16.69996452 17.55480262 28.73650360
H   17.73569263 19.45756443 29.92679911
H   13.85558627 21.11630525 30.65121625
H   12.81996544 19.21348010 29.46085382
X   14.69546736 18.26563873 29.02459193
C   16.07745152 18.33432177 29.15563617
C   16.65975627 19.40412439 29.82485603
X   15.86015949 20.40541055 30.36315588
C   14.47823226 20.33680841 30.23212631
C   13.89587058 19.26692489 29.56289178
H   13.66017891 1.96112750 23.41459989
H   14.69105721 0.05634833 22.22332122
H   16.89456820 -0.95752875 25.75149628
H   15.86362994 0.94732831 26.94267328
X   14.69768472 1.57281522 25.25282920
C   14.36807130 1.32225882 23.92604865
C   14.94767673 0.25133081 23.25628566
X   15.85698070 -0.56922536 23.91320999
C   16.18664754 -0.31871785 25.23992158
C   15.60698869 0.75225905 25.90975353
H   10.87553291 5.46603405 31.90427085
H   10.91733424 5.62295868 34.37077970
H   15.17962379 5.22030404 34.32405008
H   15.13768644 5.06335838 31.85750875
X   13.00401150 5.25496164 31.72729894
C   11.81755665 5.41229834 32.43393903
C   11.84107454 5.50051907 33.82068909
X   13.05106331 5.43143379 34.50101996
C   14.23749911 5.27407325 33.79447510
C   14.21400027 5.18587637 32.40762981
H   20.75853959 5.14244295 32.10859586
H   18.74435608 6.02635672 30.98085483
H   20.89764004 6.21759330 27.28515145
H   22.91179506 5.33369003 28.41303061
X   21.96057951 5.18299072 30.33102796
C   20.78891962 5.37773998 31.05287004
C   19.65649142 5.87471060 30.41880515
X   19.69554196 6.17699557 29.06278356
C   20.86712611 5.98230835 28.34092113
C   21.99963005 5.48527569 28.97500637
H   18.93029203 13.31451073 23.24176531
H   20.94679632 14.19258674 22.11361124
H   22.72514299 15.00278218 25.92313787
H   20.70854136 14.12469698 27.05118976
X   19.69386546 13.66489243 25.21672860
C   19.76092471 13.68399964 23.82859743
C   20.89467217 14.17769036 23.19432788
X   21.96155357 14.65233881 23.94809749
C   21.89455024 14.63329031 25.33617011
C   20.76074686 14.13954088 25.97049821
H   17.40010806 13.39202861 31.97276252
H   17.23528977 13.42545017 34.43888428
H   13.95091519 10.68482738 34.25640944
H   14.11581790 10.65151469 31.79025572
X   15.76824902 12.01966093 31.72794673
C   16.64522018 12.79948286 32.47264097
C   16.55253776 12.81826744 33.85917219
X   15.58287244 12.05721268 34.50123179
C   14.70588851 11.27742767 33.75662960
C   14.79858370 11.25860617 32.37000633
