888
Optimized structure
Al   0.20985785 4.82016205 12.49991294
Al   3.15012199 3.30229747 12.63016706
O   1.38531238 3.52234002 12.93714463
O   1.50552498 6.08308884 13.12364008
O   2.74453471 3.80498202 10.80563601
O   0.92156988 4.74605861 10.72487840
O   3.32848981 5.14201225 13.20439768
X   2.79253284 6.29154170 13.44133812
X   1.94302223 4.34649255 9.95173163
X   2.00868360 3.93599360 3.92029248
Al   3.17488547 14.57674252 12.51108729
Al   0.22161589 13.08255796 12.61899271
O   1.41044257 14.37156215 12.19194907
O   2.81211123 14.10405992 14.32980633
O   1.57020888 11.84013263 11.99949081
O   3.40123708 12.76652759 11.93258941
O   0.98108304 13.17766495 14.39670773
X   1.94148841 13.53769883 15.17952681
X   2.79852119 11.59191925 11.69216755
X   2.00868360 13.95488640 21.20978752
Al   4.22347404 9.12284731 -0.06819729
Al   5.74690092 12.05995461 0.06819729
O   5.52332897 10.29500925 0.37182596
O   2.96272358 10.41978415 0.55729137
O   5.24433819 11.65868048 -1.75732076
O   4.29981298 9.83767290 -1.84188545
O   3.90724880 12.24079174 0.64185606
X   2.75657894 11.70660365 0.87725050
X   4.70171416 10.85977538 -2.61295992
X   5.11301280 10.91343680 16.48533248
X   5.11301280 6.97744320 8.64474752
Al   4.90488582 0.19411009 12.63010405
Al   3.38549922 3.13359359 12.49997595
O   3.60666792 1.36900427 12.19254164
O   6.16745363 1.49066606 12.00749818
O   3.88739742 2.72768058 14.32465105
O   4.82941766 0.90519975 14.40533051
O   5.22543339 3.31314689 11.92681871
X   6.37538376 2.77789084 11.69033684
X   4.42887151 1.92618177 15.17859136
X   4.01736720 1.96799680 21.20978752
Al   3.38622255 14.77479506 12.62991002
Al   4.90416249 17.71504302 12.50016998
O   3.60626371 16.53956571 12.93711249
O   3.85878046 15.12177802 10.80807995
O   6.13663173 16.36048114 13.12649900
O   5.19550842 14.53752634 13.20693787
O   4.79990377 16.94473282 10.72764108
X   4.43076637 15.98217452 9.95173665
X   6.37537580 15.13223245 13.44148315
X   4.01736720 15.92288320 3.92029248
Al   5.98046721 5.64350569 0.06561444
Al   8.92031295 4.12491479 -0.06561444
O   7.74532650 5.42303266 0.37199700
O   6.32652116 5.17106396 -1.75642245
O   7.56575511 2.89268498 0.56119425
O   5.74304970 3.83421188 0.64255620
O   8.14922658 4.22953706 -1.83778440
X   7.18640176 4.59897499 -2.61321498
X   6.33759471 2.65418501 0.87670715
Al   5.75079701 5.83291253 -0.06732591
Al   4.21957795 8.76604555 0.06732591
O   5.52219144 7.59692406 -0.37262859
O   5.27942484 6.17611904 1.75552639
O   2.99238667 7.40639154 -0.55833287
O   3.94174304 5.58784801 -0.64181705
O   4.33006847 7.99466257 1.83901057
X   4.70480011 7.03312665 2.61349973
X   2.75880308 6.17733741 -0.87404357
X   7.12169640 5.00944640 16.48533248
Al   8.92194293 13.76303121 0.06290956
Al   5.97883723 12.25030831 -0.06290956
O   7.74366246 12.46704097 -0.37214371
O   7.62776523 15.02788963 -0.55999510
O   6.38751660 12.75333820 1.76083617
O   8.21224320 13.69122695 1.83884407
O   5.80303863 14.09000088 -0.63800300
X   6.34074653 15.23843932 -0.87626327
X   7.19101778 13.29392486 2.61345595
X   7.12169640 12.88143360 8.64474752
X   11.13906360 5.00944640 8.64474752
X   11.13906360 12.88143360 16.48533248
Al   12.28004956 5.64390164 -0.06647398
Al   9.34069028 4.12451884 0.06647398
O   10.51517730 5.42270893 -0.37226246
O   11.93460506 5.17251180 1.75595096
O   10.69545393 2.89229542 -0.55990233
O   12.51785775 3.83431331 -0.64233011
O   10.11220125 4.23049391 1.83837874
X   11.07511537 4.60070995 2.61332717
X   11.92360414 2.65396127 -0.87558015
Al   13.35843317 0.19276001 12.50066197
Al   14.87270179 3.13494367 12.62941803
O   14.65485006 1.37000850 12.93723518
O   12.09397171 1.48716732 13.12389538
O   14.37035884 2.72789164 10.80511910
O   13.43151175 0.90373672 10.72529030
O   13.03281880 3.31132225 13.20372418
X   11.88396781 2.77406620 13.44101287
X   13.82975861 1.92531860 9.95163419
Al   14.87865490 14.77695635 12.49953277
Al   13.35248006 17.71288173 12.63054723
O   14.65326828 16.54106060 12.19237811
O   14.40700120 15.12278368 14.32181683
O   12.12322556 16.35474827 12.00563663
O   13.06945451 14.53447348 11.92440762
O   13.46077225 16.94305847 14.40304584
X   13.83345538 15.98163745 15.17866527
X   11.88765489 15.12579124 11.69102629
Al   9.34075469 13.76658801 -0.06529471
Al   12.27998515 12.24675151 0.06529471
O   10.51527338 12.46794318 0.37200883
O   10.63716347 15.02859450 0.55875403
O   11.87502608 12.74987041 -1.75925617
O   10.05270214 13.69216958 -1.84022166
O   12.45948741 14.08629533 0.63971951
X   11.92425901 15.23616059 0.87667738
X   11.07401195 13.29199201 -2.61324044
X   13.14774720 6.97744320 16.48533248
Al   14.04011217 9.12430050 0.06784851
Al   12.51103287 12.05850142 -0.06784851
O   12.73822579 10.29415978 -0.37229696
O   15.29868948 10.42403295 -0.55621211
O   13.01332260 11.65722516 1.75774421
O   13.96135232 9.83801953 1.84187641
O   14.35065976 12.24323857 -0.64034432
X   15.50250628 11.71142468 -0.87535956
X   13.55701062 10.85891972 2.61326765
X   13.14774720 10.91343680 8.64474752
Al   18.05198233 4.81821830 12.62837189
Al   15.10955783 3.30424122 12.50170811
O   16.87437852 3.52172764 12.19297763
O   16.75744296 6.08252744 12.00510377
O   15.51750312 3.80743759 14.32557226
O   17.34180737 4.74610392 14.40410385
O   14.93313871 5.14386111 11.92657219
X   15.47042475 6.29252972 11.68846984
X   16.32053082 4.34836317 15.17842314
Al   15.11126524 14.58973838 12.63083969
Al   18.05027492 13.06956210 12.49924031
O   16.87601204 14.36824044 12.93713091
O   15.45700938 14.11745275 10.80870353
O   16.69505975 11.83795567 13.12585328
O   14.87287269 12.78046552 13.20744495
O   17.27919644 13.17494290 10.72711186
X   16.31655248 13.54505532 9.95177838
X   15.46677770 11.60006872 13.44135541
X   14.24339280 1.96799680 3.92029248
X   14.24339280 15.92288320 21.20978752
X   16.25207640 3.93599360 21.20978752
X   16.25207640 13.95488640 3.92029248
Al   12.51685019 5.82920765 0.06442449
Al   14.03429485 8.76975043 -0.06442449
O   12.73663739 7.59390322 0.37223943
O   12.98914648 6.17692565 -1.75733327
O   15.26705594 7.41516403 0.56127684
O   14.32623970 5.59202645 0.64116326
O   13.92996272 8.00006324 -1.83721969
X   13.56089542 7.03772481 -2.61343013
X   15.50603621 6.18684075 0.87579063
H   0.07313782 5.00792687 5.61696991
H   0.04585982 5.17501504 8.08301453
H   3.87766884 3.27255211 8.25419029
H   3.90481411 3.10549254 5.78810614
X   1.99069240 4.04633805 5.54897648
C   0.90583813 4.62815474 6.19422892
C   0.89051372 4.72208454 7.58071876
X   1.96005856 4.23422376 8.32217772
C   3.04488180 3.65239301 7.67701930
C   3.06023724 3.55847727 6.29043544
H   2.72904920 11.66844231 17.09082837
H   2.75693550 11.83823686 19.55668132
H   1.22019276 15.82617202 19.29934575
H   1.19238318 15.65626227 16.83346374
X   1.95894433 13.65176709 16.80859971
C   2.39877311 12.57841678 17.57426276
C   2.41445117 12.67389809 18.96064266
X   1.99028264 13.84274863 19.58158160
C   1.55049081 14.91610011 18.81601147
C   1.53477580 14.82061764 17.42953865
H   3.18792813 8.13742159 6.99496072
H   3.02174348 8.16061250 4.52881323
H   6.63190559 5.87410674 4.26414796
H   6.79799722 5.85101316 6.73033876
X   5.00329205 6.99274096 7.01621663
C   3.94167042 7.64202389 6.39721635
C   3.84825308 7.65505866 5.01066848
X   4.81644198 7.01879195 4.24289858
C   5.87805925 6.36954612 4.86180609
C   5.97148096 6.35647425 6.24844673
H   6.46658437 4.24363666 9.30567821
H   8.40410425 5.15134675 8.06789078
H   11.04776008 3.54352876 11.02718662
H   9.11012771 2.63588217 12.26491650
X   7.66771079 3.38320437 10.86235523
C   7.46930040 4.09039428 9.68240358
C   8.55864558 4.60073656 8.98649444
X   9.84658344 4.40395165 9.47042363
C   10.04505384 3.69682955 10.65033284
C   8.95564865 3.18641946 11.34628443
H   2.42064226 16.96995287 8.28724207
H   2.25235269 16.94534035 5.82125110
H   6.02566684 14.93606277 5.58391043
H   6.19385629 14.96076588 8.04994345
X   4.31771224 15.96685834 8.32215039
C   3.20963501 16.52476559 7.69551292
C   3.11503446 16.51092504 6.30905308
X   4.12849713 15.93915439 5.54900871
C   5.23656716 15.38128247 6.17555290
C   5.33117490 15.39508769 7.56210601
H   9.25393428 3.43320226 17.38049278
H   11.19102272 2.52388530 16.14320960
H   9.75182961 4.35012599 12.54807472
H   7.81474122 5.25937345 13.78548106
X   8.41373522 4.40294209 15.66003879
C   9.36297884 3.63389713 16.32281820
C   10.45206312 3.12265240 15.62716314
X   10.59208391 3.38038989 14.26861198
C   9.64290276 4.14936686 13.60579417
C   8.55375600 4.66067958 14.30148762
H   9.56966755 11.68917587 9.30140697
H   11.50597890 12.60101586 10.53804954
H   9.43981287 16.31832257 11.03202876
H   7.50354985 15.40636418 9.79532581
X   8.41602015 13.49097886 9.47139347
C   9.54128024 12.70234772 9.68024945
C   10.62993050 13.21502942 10.37552623
X   10.59348300 14.51642780 10.86207482
C   9.46831688 15.30508840 10.65323626
C   8.37957266 14.79237724 9.95794206
H   12.17983781 3.13081079 8.05608367
H   12.34816870 3.14867936 5.59003743
H   15.89533852 0.76154432 5.81498035
H   15.72691240 0.74377580 8.28105693
X   13.94287349 1.93614884 8.32212834
C   12.99301497 2.61222440 7.56551694
C   13.08767282 2.62226631 6.17902830
X   14.13220336 1.95621364 5.54892870
C   15.08207109 1.28017491 6.30544759
C   14.98740403 1.27009617 7.69202874
H   16.74352106 9.70421687 15.01537101
H   15.78810619 7.79975745 16.26846932
H   11.87110151 8.87349997 14.91363424
H   12.82664840 10.77797222 13.66058501
X   14.84458117 10.35966279 14.25991771
C   15.67709483 9.52232716 14.99310269
C   15.13991442 8.45158691 15.69763392
X   13.77012658 8.21800308 15.66907549
C   12.93758946 9.05528100 14.93596873
C   13.47479334 10.12607895 14.23135928
H   12.00048430 9.35345607 10.63092322
H   12.95740691 7.44968975 11.88392422
H   16.61792432 7.85233150 9.69990989
H   15.66086312 9.75609322 8.44693664
X   13.77110059 9.67334507 9.46093145
C   13.01112385 9.02488863 10.42721803
C   13.54914830 7.95452844 11.13168270
X   14.84725092 7.53246537 10.86998049
C   15.60723763 8.18082841 9.90372822
C   15.06920321 9.25128199 9.19922923
H   17.63873840 15.33361537 8.26676110
H   17.61201012 15.50044594 5.80069302
H   14.93083072 12.16815154 5.60443358
H   14.95766726 12.00140249 8.07054212
X   16.29983720 13.65714282 8.32221443
C   17.04603599 14.64083409 7.68400678
C   17.03100271 14.73461513 6.29750369
X   16.26974776 13.84472263 5.54898651
C   15.52358374 12.86103172 6.18710040
C   15.53858225 12.76725032 7.57369725
H   2.26915319 9.00460464 13.19983085
H   3.22517258 10.90877878 14.45290164
H   5.63622328 8.20016025 16.72922475
H   4.68009203 6.29604004 15.47608627
X   3.41511976 7.53175242 14.25990569
C   3.00614571 8.82859183 13.97229843
C   3.54365531 9.89916832 14.67682743
X   4.49024400 9.67307158 15.66907025
C   4.89922100 8.37631267 15.95673678
C   4.36170845 7.30565568 15.25214851
H   1.71996710 4.35889447 1.13688638
H   -0.20980923 5.15681870 -0.18573181
H   -2.52293011 5.50613833 3.40019545
H   -0.59306363 4.70816195 4.72271797
X   0.68362911 4.48387721 3.01216626
C   0.79130501 4.61004767 1.63221805
C   -0.29368743 5.05866197 0.88861310
X   -1.48652982 5.38119524 1.52484814
C   -1.59427882 5.25502359 2.90472812
C   -0.50921328 4.80641047 3.64840130
H   2.27120227 10.74749311 9.10289004
H   3.22575646 8.84441382 7.84704206
H   5.64025154 7.82203805 11.23177070
H   4.68563135 9.72519548 12.48752103
X   3.41895055 10.35482575 10.87342046
C   3.00856598 10.10713644 9.56881145
C   3.54526026 9.03716413 8.86274473
X   4.49241822 8.21469670 9.46118839
C   4.90285186 8.46233721 10.76572520
C   4.36610852 9.53235831 11.47186411
H   -0.69690055 14.44538400 20.51541887
H   -2.79485995 13.45456460 21.36799254
H   -0.54120610 10.98216732 24.04001850
H   1.55671544 11.97305565 23.18732729
X   0.56054523 13.27094359 21.79831074
C   -0.66288076 13.68740853 21.28688532
C   -1.84241142 13.13032467 21.76623561
X   -1.79870034 12.15669302 22.75710718
C   -0.57536118 11.74017847 23.26853147
C   0.60425631 12.29731194 22.78918230
H   -1.84332975 12.94445516 1.31344674
H   0.09288384 12.03087860 0.07793330
H   2.59143923 12.71690778 3.48645375
H   0.65512649 13.63050513 4.72186851
X   -0.71467606 13.34433411 3.09460630
C   -0.87266907 12.89459034 1.78902639
C   0.21594274 12.38095643 1.09439250
X   1.46272441 12.31696952 1.70524177
C   1.62078684 12.76670496 3.01075017
C   0.53210562 13.28034721 3.70545557
H   3.05062433 12.07075715 -4.50873393
H   3.21895522 12.08862572 -6.97478017
H   6.76612504 9.70149069 -6.74983725
H   6.59769892 9.68372217 -4.28376067
X   4.81366001 10.87609521 -4.24268926
C   3.86380150 11.55217077 -4.99930066
C   3.95845934 11.56221268 -6.38578930
X   5.00298988 10.89616001 -7.01588890
C   5.95285761 10.22012128 -6.25937002
C   5.85819055 10.21004254 -4.87278886
H   2.90621592 10.43609292 18.12139230
H   2.73832392 10.41264146 20.58742168
H   6.90940820 11.33343253 20.88004166
H   7.07717976 11.35682499 18.41396740
X   5.00214561 10.89795609 18.11412117
C   3.78236471 10.63253078 18.72523011
C   3.68798776 10.61934351 20.11171155
X   4.81338319 10.87159899 20.88730682
C   6.03314726 11.13698870 20.27628981
C   6.12754103 11.15021157 18.88971644
H   2.46597735 0.84997439 16.84434129
H   2.29844883 0.86744166 19.31044504
H   5.97843684 3.04324953 19.54491265
H   6.14586935 3.02568729 17.07876693
X   4.31633743 1.93677605 16.80798947
C   3.23470912 1.33004451 17.43546632
C   3.14053633 1.33986854 18.82198956
X   4.12797698 1.95644633 19.58125795
C   5.20959974 2.56314226 18.95387438
C   5.30377809 2.55335383 17.56725786
H   3.00302976 -0.64772462 21.24072238
H   3.99688861 -2.73673457 22.11153846
H   7.48412330 -0.57063612 23.32753124
H   6.49015472 1.51833152 22.45663661
X   4.68469049 0.56539230 21.79448790
C   3.98379627 -0.63089927 21.69751403
C   4.54259121 -1.80539989 22.18711408
X   5.80237119 -1.78378866 22.77378524
C   6.50330165 -0.58759029 22.87075870
C   5.94447047 0.58700354 22.38115907
H   6.59832728 14.34126484 16.12118330
H   8.53386811 13.42667738 17.35700291
H   10.91599175 13.67254203 13.80785312
H   8.98033991 14.58710601 12.57211792
X   7.66881945 14.52117116 14.26970497
C   7.54337864 14.19491991 15.61491681
C   8.63160890 13.68070528 16.30971887
X   9.84546518 13.49267651 15.65941600
C   9.97096028 13.81886293 14.31425754
C   8.88267572 14.33314240 13.61940210
H   6.59423315 16.26708690 2.87224697
H   7.53061614 18.10503051 1.51019382
H   3.74769112 20.10766142 1.61204898
H   2.81140341 18.26961373 2.97409259
X   4.64451929 17.15392086 3.00801548
C   5.97125808 17.10772549 2.59643278
C   6.49770629 18.14108088 1.83063866
X   5.69749549 19.22081063 1.47631955
C   4.37079897 19.26705187 1.88782410
C   3.84430848 18.23365062 2.65369637
H   3.69731839 1.83226827 1.09524407
H   2.74132866 -0.07202001 2.34816401
H   6.65791159 -1.14597620 3.70404857
H   7.61379719 0.75835479 2.45104300
X   5.71508367 1.41391234 1.69515517
C   4.34526160 1.18040775 1.66628882
C   3.80778944 0.10974868 2.37072090
X   4.64006095 -0.72756964 3.10414974
C   6.00983443 -0.49415093 3.13303234
C   6.54735517 0.57659401 2.42858401
H   8.50847252 6.38785539 -4.29825574
H   8.48174424 6.55468595 -6.76432382
H   5.80056485 3.22239155 -6.96058327
H   5.82740138 3.05564250 -4.49447473
X   7.16957132 4.71138283 -4.24280242
C   7.91577011 5.69507411 -4.88101007
C   7.90073683 5.78885514 -6.26751316
X   7.13948189 4.89896265 -7.01603033
C   6.39331786 3.91527173 -6.37791645
C   6.40831638 3.82149034 -4.99131960
H   1.16523875 3.93723704 -0.34102833
H   -0.77165627 3.02657415 -1.57762423
H   -0.41499188 6.17637048 -4.45564444
H   1.52190092 7.08696661 -3.21892387
X   1.46420258 5.56878809 -1.70299511
C   0.81935619 4.42725932 -1.24163260
C   -0.26963009 3.91527103 -1.93689412
X   -0.71393267 4.54472729 -3.09364636
C   -0.06918025 5.68622664 -3.55502629
C   1.01990001 6.19824434 -2.85974735
H   5.20050717 3.98587812 18.22765976
H   5.22741929 3.81858164 20.69369428
H   9.10887889 5.62393404 20.77369913
H   9.08185900 5.79114840 18.30762410
X   7.13949267 4.89896513 18.11408554
C   6.05589925 4.34442674 18.78496752
C   6.07104746 4.25036903 20.17145062
X   7.16979374 4.71085512 20.88727523
C   8.25338542 5.26535112 20.21648380
C   8.23823895 5.35945122 18.82991015
H   8.17531967 11.28367827 4.27980285
H   8.14660603 11.11575706 6.74577459
H   6.13834996 14.88985442 6.97927709
H   6.16715421 15.05767545 4.51326346
X   7.17299127 13.18111690 4.24297668
C   7.72945825 12.07292308 4.87068769
C   7.71331193 11.97852964 6.25713671
X   7.14067542 12.99231605 7.01609668
C   6.58424361 14.10050267 6.38847900
C   6.60035476 14.19490331 5.00193665
H   6.41587812 17.94956467 -0.29711090
H   5.45866086 19.85313459 -1.55018524
H   3.94242588 17.14754451 -4.50183572
H   4.89973101 15.24403369 -3.24866763
X   5.71737774 16.47826063 -1.69484240
C   5.87446291 17.77407533 -1.21739222
C   5.33628397 18.84431309 -1.92192488
X   4.64091481 18.61889932 -3.10401882
C   4.48382678 17.32317038 -3.58152037
C   5.02200859 16.25284686 -2.87693634
H   13.10681515 5.68236249 6.78761212
H   13.08031165 5.51601229 4.32150917
H   9.10634617 3.92964019 4.47133803
H   9.13298529 4.09601298 6.93747412
X   11.12153545 4.89958048 7.01610413
C   12.23123245 5.29878635 6.28059246
C   12.21631822 5.20524751 4.89407172
X   11.09168811 4.71250023 4.24283985
C   9.98201837 4.31326535 4.97825978
C   9.99690535 4.40683319 6.36487226
H   12.72019322 11.58457878 18.38063811
H   12.69361602 11.75117418 20.84672372
H   9.49283060 14.58583072 20.62062259
H   9.51952857 14.41916826 18.15450669
X   11.12149003 12.99147262 18.11401188
C   12.01380474 12.24142312 18.87095993
C   11.99885374 12.33510358 20.25747071
X   11.09156590 13.17884242 20.88725578
C   10.19928446 13.92891006 20.13040028
C   10.21420219 13.83521147 18.74379695
H   11.39892468 1.80579061 -3.46350336
H   12.35347887 -0.09728868 -4.71935134
H   14.76797395 -1.11966445 -1.33462270
H   13.81335375 0.78349297 -0.07887238
X   12.54667296 1.41312325 -1.69297295
C   12.13628839 1.16543394 -2.99758195
C   12.67298267 0.09546163 -3.70364867
X   13.62014063 -0.72700581 -3.10520501
C   14.03057427 -0.47936529 -1.80066820
C   13.49383093 0.59065581 -1.09452929
H   15.95802113 16.71189521 16.83357134
H   16.12491484 16.68749359 19.29965926
H   12.12065095 15.19360208 19.55575598
H   11.95386834 15.21807996 17.08962517
X   13.94556413 15.96647154 16.80803489
C   15.11817072 16.37955223 17.42942710
C   15.21198628 16.36583255 18.81594148
X   14.13320643 15.93900969 19.58128584
C   12.96061174 15.52596392 18.95998658
C   12.86678428 15.53964868 17.57337925
H   11.40020603 17.94963405 0.63498046
H   12.35622543 19.85380818 1.88805125
H   14.76727613 17.14518965 4.16437436
H   13.81114488 15.24106944 2.91123589
X   12.54617261 16.47678182 1.69505530
C   12.13719855 17.77362123 1.40744804
C   12.67470816 18.84419772 2.11197704
X   13.62129685 18.61810098 3.10421986
C   14.03027384 17.32134207 3.39188639
C   13.49276129 16.25068508 2.68729813
H   9.20382211 13.95339696 -6.94803629
H   9.17654411 14.12048513 -4.48199167
H   13.00835313 12.21802220 -4.31081591
H   13.03549840 12.05096263 -6.77690006
X   11.12137670 12.99180814 -7.01602972
C   10.03652242 13.57362483 -6.37077728
C   10.02119801 13.66755463 -4.98428744
X   11.09074285 13.17969385 -4.24282847
C   12.17556609 12.59786310 -4.88798690
C   12.19092153 12.50394736 -6.27457075
H   11.44719094 5.87632303 18.40080997
H   11.61348567 5.89950444 20.86695014
H   15.25511510 8.13531290 20.60026250
H   15.08872116 8.11203483 18.13409382
X   13.25758253 6.99276802 18.11388737
C   12.28059785 6.37077566 18.88226005
C   12.37411106 6.38381264 20.26880144
X   13.44462380 7.01886473 20.88719210
C   14.42161616 7.64082173 20.11891264
C   14.32809527 7.62782012 18.73227803
H   11.59523827 9.78906088 4.27915972
H   11.42770975 9.80652814 6.74526347
H   15.10769776 11.98233601 6.97973107
H   15.27513027 11.96477377 4.51358535
X   13.44559835 10.87586253 4.24280789
C   12.36397004 10.26913100 4.87028474
C   12.26979725 10.27895503 6.25680798
X   13.25723790 10.89553281 7.01607637
C   14.33886066 11.50222874 6.38869280
C   14.43303901 11.49244032 5.00207628
H   15.59533654 13.18312145 -3.25968988
H   17.53285642 14.09083155 -4.49747731
H   20.17651224 12.48301355 -1.53818147
H   18.23887987 11.57536697 -0.30045159
X   16.79646296 12.32268917 -1.70301286
C   16.59805256 13.02987908 -2.88296452
C   17.68739775 13.54022136 -3.57887365
X   18.97533561 13.34343645 -3.09494446
C   19.17380600 12.63631434 -1.91503526
C   18.08440082 12.12590426 -1.21908367
H   17.30526647 2.33817762 16.84480658
H   17.27655284 2.17025642 19.31077832
H   15.26829677 5.94435377 19.54428081
H   15.29710102 6.11217481 17.07826719
X   16.30293808 4.23561625 16.80798040
C   16.85940506 3.12742243 17.43569141
C   16.84325874 3.03302899 18.82214043
X   16.27062222 4.04681540 19.58110040
C   15.71419042 5.15500202 18.95348272
C   15.73030156 5.24940266 17.56694037
H   15.36479337 -0.48873172 3.16959941
H   14.42177390 -2.32378662 1.80823009
H   10.79822105 -0.09677835 1.31657405
H   11.74135522 1.73822079 2.67800451
X   13.61180851 0.73902907 3.00854274
C   14.36531781 -0.40297603 2.76396507
C   13.83510613 -1.43469625 1.99856276
X   12.55129776 -1.32456362 1.47759966
C   11.79775618 -0.18265029 1.72215419
C   12.32800014 0.84916170 2.48757964
H   11.81194295 17.17649351 20.58681058
H   10.82287415 19.26737703 21.45858326
H   14.23459033 19.82822652 23.98386884
H   15.22355326 17.73727882 23.11202780
X   13.57935496 17.32670728 21.79510787
C   12.34217147 17.75694344 21.33030250
C   11.78609597 18.93250393 21.82045480
X   12.46713138 19.67802715 22.77548443
C   13.70424911 19.24785114 23.24033517
C   14.26039037 18.07223050 22.75013750
H   16.70556166 5.91721380 23.18778947
H   18.80413015 6.90682090 24.04027214
H   21.05599555 4.43379156 21.36732343
H   18.95732806 3.44422452 20.51493347
X   17.70076671 4.61912263 21.79825071
C   17.65777539 5.59259903 22.78934384
C   18.83766641 6.14897405 23.26863055
X   20.06074249 5.73196821 22.75688184
C   20.10380519 4.75851688 21.76585410
C   18.92384279 4.20211680 21.28650200
H   17.14155260 11.33180704 3.33838918
H   19.07196888 10.53505759 2.01599669
H   20.18477174 14.58787348 1.19881872
H   18.25427485 15.38450826 2.52123001
X   17.57772914 13.40777249 3.01218495
C   17.80768350 12.04442876 2.87011090
C   18.89302603 11.59648636 2.12661180
X   19.74860089 12.51182619 1.52508014
C   19.51869673 13.87512276 1.66708169
C   18.43330401 14.32311233 2.41065329
H   15.72884761 5.39584856 3.55581708
H   17.66438843 4.48126110 4.79163669
H   20.04651207 4.72712575 1.24248690
H   18.11086024 5.64168973 0.00675170
X   16.79933977 5.57575488 1.70433876
C   16.67389896 5.24950363 3.04955059
C   17.76212922 4.73528900 3.74435266
X   18.97598550 4.54726023 3.09404978
C   19.10148061 4.87344665 1.74889132
C   18.01319604 5.38772612 1.05403588
H   11.55089666 8.02500802 -4.27786104
H   11.38260709 8.00039549 -6.74385201
H   15.15592124 5.99111791 -6.98119268
H   15.32411068 6.01582102 -4.51515966
X   13.44796663 7.02191348 -4.24295273
C   12.33988940 7.57982073 -4.86959019
C   12.24528886 7.56598018 -6.25605003
X   13.25875153 6.99420953 -7.01609440
C   14.36682155 6.43633761 -6.38955021
C   14.46142930 6.45014283 -5.00299710
H   1.16541972 3.93780785 24.78786319
H   -0.77147530 3.02714496 23.55126728
H   -0.41481091 6.17694129 20.67324707
H   1.52208189 7.08753742 21.90996764
X   1.46438355 5.56935890 23.42589640
C   0.81953716 4.42783013 23.88725891
C   -0.26944912 3.91584184 23.19199739
X   -0.71375170 4.54529810 22.03524515
C   -0.06899928 5.68679745 21.57386522
C   1.02008098 6.19881515 22.26914416
H   6.82757440 7.76396662 29.39835210
H   6.99446811 7.73956501 31.86444003
H   2.99020422 6.24567349 32.12053674
H   2.82342161 6.27015137 29.65440593
X   4.81511740 7.01854296 29.37281566
C   5.98772399 7.43162365 29.99420787
C   6.08153955 7.41790397 31.38072224
X   5.00275970 6.99108111 32.14606660
C   3.83016502 6.57803534 31.52476734
C   3.73633755 6.59172010 30.13816002
H   6.41248988 17.94775435 24.83266637
H   5.45527262 19.85132426 23.57959203
H   3.93903764 17.14573418 20.62794155
H   4.89634277 15.24222337 21.88110964
X   5.71398951 16.47645030 23.43493486
C   5.87107467 17.77226500 23.91238505
C   5.33289573 18.84250276 23.20785239
X   4.63752658 18.61708899 22.02575845
C   4.48043854 17.32136005 21.54825689
C   5.01862035 16.25103654 22.25284093
H   8.17056903 11.28140082 29.40965119
H   8.14185539 11.11347961 31.87562293
H   6.13359932 14.88757697 32.10912542
H   6.16240357 15.05539800 29.64311180
X   7.16824063 13.17883945 29.37282501
C   7.72470761 12.07064562 30.00053602
C   7.70856129 11.97625219 31.38698504
X   7.13592478 12.99003860 32.14594501
C   6.57949297 14.09822522 31.51832734
C   6.59560412 14.19262585 30.13178499
H   -1.84351838 12.94418154 26.44339553
H   0.09269520 12.03060497 25.20788210
H   2.59125059 12.71663415 28.61640254
H   0.65493785 13.63023150 29.85181731
X   -0.71486469 13.34406048 28.22455510
C   -0.87285771 12.89431671 26.91897518
C   0.21575410 12.38068280 26.22434130
X   1.46253578 12.31669590 26.83519056
C   1.62059820 12.76643133 28.14069897
C   0.53191698 13.28007358 28.83540436
H   3.69730325 1.83234416 26.22549738
H   2.74131352 -0.07194412 27.47841732
H   6.65789645 -1.14590031 28.83430188
H   7.61378206 0.75843068 27.58129630
X   5.71506853 1.41398822 26.82540848
C   4.34524646 1.18048364 26.79654213
C   3.80777431 0.10982457 27.50097421
X   4.64004581 -0.72749376 28.23440305
C   6.00981929 -0.49407505 28.26328565
C   6.54734004 0.57666990 27.55883732
H   11.39982185 17.94995078 25.76474352
H   12.35584124 19.85412491 27.01781431
H   14.76689194 17.14550638 29.29413743
H   13.81076069 15.24138617 28.04099895
X   12.54578842 16.47709856 26.82481837
C   12.13681437 17.77393796 26.53721110
C   12.67432397 18.84451445 27.24174010
X   13.62091266 18.61841771 28.23398293
C   14.02988966 17.32165880 28.52164945
C   13.49237711 16.25100182 27.81706119
H   11.39982176 1.80654717 21.66579439
H   12.35437594 -0.09653212 20.40994641
H   14.76887102 -1.11890790 23.79467506
H   13.81425083 0.78424953 25.05042538
X   12.54757004 1.41387980 23.43632481
C   12.13718546 1.16619050 22.13171580
C   12.67387974 0.09621819 21.42564908
X   13.62103771 -0.72624925 22.02409274
C   14.03147135 -0.47860873 23.32862955
C   13.49472800 0.59141237 24.03476847
H   11.86126008 2.72646500 29.65518617
H   11.88914638 2.89625955 32.12103912
H   10.35240363 6.88419471 31.86370355
H   10.32459406 6.71428496 29.39782154
X   11.09115521 4.70978978 29.37295751
C   11.53098399 3.63643947 30.13862057
C   11.54666205 3.73192077 31.52500047
X   11.12249351 4.90077131 32.14593941
C   10.68270168 5.97412280 31.38036927
C   10.66698668 5.87864032 29.99389645
H   15.72819496 5.39387807 28.68505262
H   17.66373579 4.47929060 29.92087223
H   20.04585942 4.72515525 26.37172244
H   18.11020759 5.63971924 25.13598724
X   16.79868713 5.57378439 26.83357430
C   16.67324631 5.24753314 28.17878614
C   17.76147658 4.73331850 28.87358820
X   18.97533285 4.54528974 28.22328533
C   19.10082796 4.87147616 26.87812686
C   18.01254340 5.38575562 26.18327142
H   15.59684048 13.18059025 21.87098652
H   17.53436036 14.08830034 20.63319909
H   20.17801619 12.48048235 23.59249493
H   18.24038382 11.57283577 24.83022481
X   16.79796690 12.32015797 23.42766354
C   16.59955650 13.02734787 22.24771189
C   17.68890169 13.53769016 21.55180275
X   18.97683955 13.34090524 22.03573195
C   19.17530995 12.63378314 23.21564115
C   18.08590476 12.12337305 23.91159274
H   11.59625301 9.78601643 29.40943770
H   11.42872449 9.80348370 31.87554145
H   15.10871250 11.97929157 32.11000905
H   15.27614501 11.96172932 29.64386333
X   13.44661309 10.87281809 29.37308587
C   12.36498478 10.26608655 30.00056272
C   12.27081199 10.27591058 31.38708596
X   13.25825264 10.89248837 32.14635435
C   14.33987540 11.49918430 31.51897078
C   14.43405374 11.48939587 30.13235426
