800
Optimized structure
Al   0.35727589 5.02574460 12.87651794
Al   3.29754003 3.50788002 13.00677206
O   1.53273042 3.72792257 13.31374963
O   1.65294302 6.28867139 13.50024508
O   2.89195275 4.01056457 11.18224101
O   1.06898792 4.95164116 11.10148340
O   3.47590785 5.34759480 13.58100268
X   2.93995088 6.49712425 13.81794312
X   2.09044027 4.55207510 10.32833663
X   2.18494430 4.13523660 4.03779324
Al   3.32390588 15.27680997 12.88769229
Al   0.37063630 13.78262541 12.99559771
O   1.55946298 15.07162960 12.56855407
O   2.96113164 14.80412737 14.70641133
O   1.71922929 12.54020008 12.37609581
O   3.55025749 13.46659504 12.30919441
O   1.13010345 13.87773240 14.77331273
X   2.09050882 14.23776628 15.55613181
X   2.94754160 12.29198670 12.06877255
X   2.18494430 14.66129340 21.84549676
Al   6.18797392 6.20230340 25.81538623
Al   4.65729506 9.13566508 25.95119377
O   5.95995897 7.96659376 25.51125527
O   5.71542100 6.54423874 27.63817171
O   3.43024162 7.77674799 25.32366641
O   4.37926307 5.95806269 25.23946569
O   4.76639955 8.36292404 27.72237243
X   5.14039058 7.40072407 28.49639473
X   3.19661040 6.54798253 25.00686920
X   -2.18494430 4.13523660 21.84549676
Al   4.66092105 9.65899211 -0.06819729
Al   6.18434793 12.59609941 0.06819729
O   5.96077598 10.83115405 0.37182596
O   3.40017059 10.95592895 0.55729137
O   5.68178520 12.19482528 -1.75732076
O   4.73725999 10.37381770 -1.84188545
O   4.34469581 12.77693654 0.64185606
X   3.19402595 12.24274845 0.87725050
X   5.13916117 11.39592018 -2.61295992
X   -2.18494430 14.66129340 4.03779324
X   5.56167640 11.46588330 16.97943824
X   5.56167640 7.33064670 8.90385176
Al   5.26862381 0.27833554 13.00670905
Al   3.74923721 3.21781904 12.87658095
O   3.97040591 1.45322972 12.56914664
O   6.53119162 1.57489151 12.38410318
O   4.25113541 2.81190603 14.70125605
O   5.19315565 0.98942520 14.78193551
O   5.58917138 3.39737234 12.30342371
X   6.73912175 2.86211629 12.06694184
X   4.79260950 2.01040722 15.55519636
X   4.36988860 2.06761830 21.84549676
Al   3.74996054 15.59712526 13.00651502
Al   5.26790048 18.53737322 12.87677498
O   3.97000170 17.36189591 13.31371749
O   4.22251845 15.94410822 11.18468495
O   6.50036972 17.18281134 13.50310400
O   5.55924641 15.35985654 13.58354287
O   5.16364176 17.76706302 11.10424608
X   4.79450436 16.80450472 10.32834165
X   6.73911379 15.95456265 13.81808815
X   4.36988860 16.72891170 4.03779324
Al   6.63423417 5.89074814 0.06561444
Al   9.57407991 4.37215724 -0.06561444
O   8.39909346 5.67027511 0.37199700
O   6.98028812 5.41830641 -1.75642245
O   8.21952207 3.13992743 0.56119425
O   6.39681666 4.08145433 0.64255620
O   8.80299354 4.47677951 -1.83778440
X   7.84016872 4.84621744 -2.61321498
X   6.99136167 2.90142746 0.87670715
X   4.36988860 -2.06761830 4.03779324
Al   9.57224442 14.42765608 25.95185472
Al   6.63606966 12.90249854 25.81472528
O   8.40091935 13.12720135 25.51137544
O   8.27463108 15.68777495 25.32649645
O   7.03680829 13.40487243 27.64041293
O   8.85723771 14.35047065 27.72543323
O   6.45420166 14.74217673 25.24147615
X   6.98772904 15.89322241 25.00642089
X   7.83527797 13.94777455 28.49628212
X   4.36988860 20.86414830 21.84549676
Al   6.18824402 6.20241773 -0.06732591
Al   4.65702496 9.13555075 0.06732591
O   5.95963845 7.96642926 -0.37262859
O   5.71687185 6.54562424 1.75552639
O   3.42983368 7.77589674 -0.55833287
O   4.37919005 5.95735321 -0.64181705
O   4.76751548 8.36416777 1.83901057
X   5.14224712 7.40263185 2.61349973
X   3.19625009 6.54684261 -0.87404357
Al   4.66181666 9.65845017 25.81678863
Al   6.18345232 12.59664135 25.94979137
O   5.96109723 10.83185028 26.25520521
O   3.40048199 10.95520043 26.44148580
O   5.68047519 12.19329021 24.12484527
O   4.73706054 10.37161062 24.04238353
O   4.34389664 12.77688002 26.52394754
X   3.19364772 12.24219887 26.76027797
X   5.13803979 11.39321967 23.27017601
Al   6.63421275 5.89073071 25.94862563
Al   9.57410133 4.37217467 25.81795437
O   8.39904995 5.67035518 26.25520550
O   6.98043494 5.41793387 24.12671282
O   8.21951449 3.14004145 26.44489026
O   6.39678252 4.08154674 26.52590650
O   8.80316691 4.47642857 24.04569659
X   7.84040188 4.84569237 23.27010885
X   6.99133160 2.90157877 26.76034378
X   7.74662070 5.26302840 16.97943824
Al   9.57570989 14.42143876 0.06290956
Al   6.63260419 12.90871586 -0.06290956
O   8.39742942 13.12544852 -0.37214371
O   8.28153219 15.68629718 -0.55999510
O   7.04128356 13.41174575 1.76083617
O   8.86601016 14.34963450 1.83884407
O   6.45680559 14.74840843 -0.63800300
X   6.99451349 15.89684687 -0.87626327
X   7.84478474 13.95233241 2.61345595
X   7.74662070 13.53350160 8.90385176
X   12.11650930 5.26302840 8.90385176
X   12.11650930 13.53350160 16.97943824
Al   13.22865260 5.89114409 -0.06647398
Al   10.28929332 4.37176129 0.06647398
O   11.46378034 5.66995138 -0.37226246
O   12.88320810 5.41975425 1.75595096
O   11.64405697 3.13953787 -0.55990233
O   13.46646079 4.08155576 -0.64233011
O   11.06080429 4.47773636 1.83837874
X   12.02371841 4.84795240 2.61332717
X   12.87220718 2.90120372 -0.87558015
Al   10.28923442 14.42467762 25.81707794
Al   13.22871150 12.90547700 25.94950206
O   11.46384040 13.12646940 26.25544205
O   11.58516019 15.68723263 26.44102039
O   12.82434650 13.40765256 24.12455959
O   11.00186964 14.34955749 24.04245659
O   13.40763704 14.74532769 26.52312340
X   12.87209452 15.89520055 26.75933350
X   12.02355067 13.94921321 23.27001487
Al   14.59706518 0.27698546 12.87726697
Al   16.11133380 3.21916912 13.00602303
O   15.89348207 1.45423395 13.31384018
O   13.33260372 1.57139277 13.50050038
O   15.60899085 2.81211709 11.18172410
O   14.67014376 0.98796217 11.10189530
O   14.27145081 3.39554770 13.58032918
X   13.12259982 2.85829165 13.81761787
X   15.06839062 2.00954405 10.32823919
Al   16.11728691 15.59928655 12.87613777
Al   14.59111207 18.53521193 13.00715223
O   15.89190029 17.36339080 12.56898311
O   15.64563321 15.94511388 14.69842183
O   13.36185757 17.17707847 12.38224163
O   14.30808652 15.35680368 12.30101262
O   14.69940426 17.76538867 14.77965084
X   15.07208739 16.80396765 15.55527027
X   13.12628690 15.94812144 12.06763129
Al   13.22801412 5.89241278 25.81721529
Al   10.28993180 4.37049260 25.94936471
O   11.46330452 5.66995277 25.51140735
O   12.88309546 5.41952256 27.63935109
O   11.64567623 3.13981582 25.32207047
O   13.46728833 4.08340688 25.24013778
O   11.06148336 4.47593150 27.72128379
X   12.02414510 4.84643417 28.49640876
X   12.87400162 2.90271545 25.00614525
X   15.49324140 -2.06761830 21.84549676
Al   10.28935773 14.42499556 -0.06529471
Al   13.22858819 12.90515906 0.06529471
O   11.46387642 13.12635073 0.37200883
O   11.58576651 15.68700205 0.55875403
O   12.82362912 13.40827796 -1.75925617
O   11.00130518 14.35057713 -1.84022166
O   13.40809045 14.74470288 0.63971951
X   12.87286205 15.89456814 0.87667738
X   12.02261499 13.95039956 -2.61324044
X   15.49324140 20.86414830 4.03779324
Al   13.67842732 6.20059213 25.95100072
Al   15.20256370 9.13737635 25.81557928
O   13.90280756 7.96521607 26.25589869
O   14.14881904 6.54453461 24.12803387
O   16.43307954 7.78081990 26.44143209
O   15.48811444 5.96001263 26.52539343
O   15.09378415 8.36534189 24.04407253
X   14.72130564 7.40273651 23.26982500
X   16.66965005 6.55240122 26.75739175
X   14.30145360 7.33064670 16.97943824
Al   15.20503516 9.66044530 0.06784851
Al   13.67595586 12.59464622 -0.06784851
O   13.90314878 10.83030458 -0.37229696
O   16.46361247 10.96017775 -0.55621211
O   14.17824559 12.19336996 1.75774421
O   15.12627531 10.37416433 1.84187641
O   15.51558275 12.77938337 -0.64034432
X   16.66742927 12.24756948 -0.87535956
X   14.72193361 11.39506452 2.61326765
X   14.30145360 11.46588330 8.90385176
Al   19.50693429 5.02380085 13.00497689
Al   16.56450979 3.50982377 12.87831311
O   18.32933048 3.72731019 12.56958263
O   18.21239492 6.28810999 12.38170877
O   16.97245508 4.01302014 14.70217726
O   18.79675933 4.95168647 14.78070885
O   16.38809067 5.34944366 12.30317719
X   16.92537671 6.49811227 12.06507484
X   17.77548278 4.55394572 15.55502814
Al   16.56621720 15.28980583 13.00744469
Al   19.50522688 13.76962955 12.87584531
O   18.33096400 15.06830789 13.31373591
O   16.91196134 14.81752020 11.18530853
O   18.15001171 12.53802312 13.50245828
O   16.32782465 13.48053297 13.58404995
O   18.73414840 13.87501035 11.10371686
X   17.77150444 14.24512277 10.32838338
X   16.92172966 12.30013617 13.81796041
X   15.49324140 2.06761830 4.03779324
X   15.49324140 16.72891170 21.84549676
X   17.67818570 4.13523660 21.84549676
X   17.67818570 14.66129340 4.03779324
Al   13.68177318 6.19871285 0.06442449
Al   15.19921784 9.13925563 -0.06442449
O   13.90156038 7.96340842 0.37223943
O   14.15406947 6.54643085 -1.75733327
O   16.43197893 7.78466923 0.56127684
O   15.49116269 5.96153165 0.64116326
O   15.09488571 8.36956844 -1.83721969
X   14.72581841 7.40723001 -2.61343013
X   16.67095920 6.55634595 0.87579063
X   22.04807430 4.13523660 4.03779324
Al   15.20057393 9.65798064 25.94784405
Al   13.68041709 12.59711088 25.81873595
O   13.90206877 10.83269540 25.51065241
O   16.46283211 10.95510356 25.32579149
O   14.18232520 12.19064698 27.64328569
O   15.12482299 10.36838518 27.72333275
O   15.52033432 12.77736536 25.24574442
X   16.67043880 12.24250200 25.00912354
X   14.72396561 11.38897149 28.49695463
X   22.04807430 14.66129340 21.84549676
Al   24.58240595 9.16679871 25.82543972
Al   25.98912303 6.17116977 25.94114028
O   25.23896483 7.67468386 26.59986251
O   26.17851918 9.21665071 24.77058889
O   24.51557598 6.16287124 24.68627112
O   23.64341089 8.02016225 24.61453673
O   27.05068427 7.35935970 24.84232327
X   27.23897512 8.52597890 24.32429357
X   23.55101794 6.78538335 24.09727618
Al   24.34304799 9.91179889 -0.61217090
Al   26.22848099 12.34329263 0.61217090
O   25.64829075 10.64839358 0.39330238
O   23.18791556 11.29664993 0.02863298
O   26.17855236 12.45271516 -1.31957448
O   25.00958322 10.94518817 -2.07866684
O   24.35688470 12.80417692 0.78772534
X   23.11457708 12.50154866 0.61481928
X   25.76465414 11.99025850 -2.45078210
Al   -6.36375257 6.44967476 0.60752712
Al   -4.48151641 8.88829372 -0.60752712
O   -5.78676404 8.14634679 0.39399687
O   -6.34826632 6.29665815 -1.30012039
O   -3.36212477 7.45540695 0.05572565
O   -4.52911187 5.94346232 0.80905972
O   -5.18127922 7.80860279 -2.05345446
X   -5.89595397 6.81170988 -2.45377074
X   -3.24953300 6.29789707 0.61456601
Al   -6.13166286 12.62303582 25.93120979
Al   -4.71360612 9.63205570 25.83537021
O   -5.37786501 11.12580562 26.60001277
O   -4.68292955 12.68996182 24.68242412
O   -6.33485814 9.63054669 24.77818244
O   -7.21405383 11.48495544 24.83760301
O   -3.80373386 10.83555307 24.62300355
X   -3.68604731 12.00810082 24.09756067
X   -7.36820873 10.25511381 24.32330767
Al   6.61167726 24.64438335 -0.02796929
Al   9.59663682 23.21158203 0.02796929
O   8.34109536 24.43898834 0.44545742
O   7.16113953 24.34084718 -1.83593222
O   8.22452580 21.89830270 0.40041409
O   6.37384980 22.78664003 0.36573216
O   9.01181553 23.45250985 -1.80125028
X   8.12379093 23.86577175 -2.64115236
X   6.97847860 21.60478377 0.56172617
Al   10.23536885 23.35885239 25.57308153
Al   13.28257707 24.49711299 26.19349847
O   11.64915061 23.83827502 26.58727185
O   10.45480194 25.01472868 24.63889966
O   13.35584041 23.10733780 24.84840971
O   11.46657023 22.40161582 24.46375098
O   12.34407213 25.72045066 25.02355838
X   11.27936550 26.03808079 24.36757097
X   12.75123876 22.23664620 24.11277286
Al   6.58067974 -5.71384647 26.16849601
Al   9.62763434 -4.54905891 25.59808399
O   8.20354802 -5.04570011 26.58931181
O   6.45478079 -4.33888203 24.84320541
O   9.37255542 -6.22344518 24.66134938
O   7.48344247 -6.94561389 25.01500504
O   8.34389374 -3.61671332 24.48954975
X   7.12395056 -3.43552628 24.11044755
X   8.62039954 -7.22767808 24.36037363
Al   10.25863034 -4.43482991 0.07208873
Al   13.25931558 -5.82807547 -0.07208873
O   11.53919675 -5.65080208 0.44460487
O   11.56247230 -3.08059980 0.43101754
O   12.60315842 -5.48210745 -1.85978845
O   10.74273249 -4.61829470 -1.77039837
O   13.42289823 -3.94441255 0.34162746
X   12.86819787 -2.80078980 0.56353535
X   11.67567867 -5.03775655 -2.63898173
X   -2.18494430 14.66129340 29.92108324
X   4.36988860 -2.06761830 29.92108324
X   5.56167640 7.33064670 34.78714176
X   7.74662070 13.53350160 34.78714176
X   12.11650930 5.26302840 34.78714176
X   15.49324140 20.86414830 29.92108324
X   14.30145360 11.46588330 34.78714176
X   22.04807430 4.13523660 29.92108324
X   -2.18494430 4.13523660 -4.03779324
X   4.36988860 20.86414830 -4.03779324
X   5.56167640 11.46588330 -8.90385176
X   7.74662070 5.26302840 -8.90385176
X   12.11650930 13.53350160 -8.90385176
X   15.49324140 -2.06761830 -4.03779324
X   14.30145360 7.33064670 -8.90385176
X   22.04807430 14.66129340 -4.03779324
H   3.81764826 2.91661642 6.06347245
H   3.78025196 3.07928574 8.52967982
H   0.45672848 5.76883512 8.30177088
H   0.49424846 5.60610422 5.83553332
X   2.15825242 4.25120278 5.79593472
C   3.08202983 3.54084114 6.55342518
C   3.06099532 3.63231384 7.94000443
X   2.11616059 4.43415583 8.56931552
C   1.19241548 5.14453697 7.81191767
C   1.21341769 5.05304477 6.42524582
H   6.19063051 10.17307509 14.43713999
H   5.18516459 8.26750938 13.22557232
H   2.31077491 7.78976699 16.36262075
H   3.31636433 9.69535560 17.57412343
X   4.81608329 10.05289741 16.08105878
C   5.34141015 9.65142755 14.85851070
C   4.77609771 8.58005233 14.17734355
X   3.68534972 7.90998522 14.71861481
C   3.16001647 8.31136538 15.94111914
C   3.72533530 9.38283029 16.62233005
H   1.44092176 4.36749851 1.10415742
H   -0.54139762 5.15668269 -0.14389579
H   -2.50504379 6.06632017 3.55043501
H   -0.52264651 5.27706715 4.79839234
X   0.58258951 4.77317552 3.02899083
C   0.57724945 4.73937222 1.63953087
C   -0.53728343 5.18307486 0.93784993
X   -1.64665293 5.66067047 1.62552532
C   -1.64139157 5.69447053 3.01492366
C   -0.52677999 5.25077112 3.71666622
H   2.98677124 12.41464916 17.58602660
H   3.02419532 12.57994482 20.05205892
H   1.28771889 16.48642223 19.81645218
H   1.25037698 16.32101543 17.35038995
X   2.11620900 14.35752548 17.31465098
C   2.61486881 13.30580857 18.07425620
C   2.63590844 13.39876041 19.46073700
X   2.15827115 14.54344666 20.08783484
C   1.65964886 15.59516638 19.32832227
C   1.63857171 15.50221173 17.94174882
H   1.81331260 9.88620526 10.86587585
H   2.81696427 7.98136273 9.65166958
H   6.69580801 9.73663912 10.10444186
H   5.69201737 11.64147021 11.31862457
X   3.69017370 10.88243372 11.16789079
C   2.88195538 9.85340037 10.69922920
C   3.44625454 8.78244679 10.01656048
X   4.81887422 8.74035072 9.80246040
C   5.62711049 9.76932040 10.27104699
C   5.06279337 10.84033765 10.95379071
H   -0.53426658 15.77854319 22.66684170
H   -2.66043248 14.81773779 23.48311996
H   -0.96503778 10.89157271 23.27747158
H   1.16109630 11.85251134 22.46115817
X   0.44582282 13.87535835 22.51320586
C   -0.62858905 14.70893096 22.80054886
C   -1.82398260 14.16871995 23.25948025
X   -1.94514589 12.79484157 23.43115832
C   -0.87083138 11.96124619 23.14381713
C   0.32465953 12.50147998 22.68488393
H   -1.40809355 4.47591463 24.72774737
H   0.57989773 5.36687881 25.89569948
H   2.41994478 6.20748699 22.12223536
H   0.43188023 5.31645500 20.95438343
X   -0.61191280 4.84073924 22.76833650
C   -0.57023251 4.85495849 24.15751998
C   0.54748898 5.35588490 24.81416534
X   1.62370657 5.84269052 24.08172307
C   1.58210658 5.82847253 22.69259918
C   0.46430479 5.32754487 22.03589424
H   3.34399212 8.23377584 30.49100855
H   3.38109968 8.07090417 32.95720693
H   7.36006561 6.49851162 32.79338231
H   7.32282222 6.66140536 30.32715131
X   5.33111151 7.45776679 30.25551287
C   4.22299026 7.85402083 30.99498578
C   4.24386647 7.76243777 32.38156014
X   5.37288372 7.27459848 33.02888430
C   6.48097820 6.87831547 32.28950328
C   6.46012876 6.96992750 30.90283703
H   -1.30150953 14.53911719 1.16794160
H   0.68589946 13.64548644 0.00103618
H   2.31077394 12.36473289 3.74948652
H   0.32329987 13.25844425 4.91629568
X   -0.61287655 13.95439327 3.11477859
C   -0.51087189 14.06315804 1.73291918
C   0.60652166 13.56073056 1.07686279
X   1.62208552 12.94943901 1.80256822
C   1.52016353 12.84067380 3.18437136
C   0.40268732 13.34310173 3.84048402
H   6.31655430 9.49198722 -6.95088615
H   6.15074423 9.46880932 -4.48471332
H   4.38618856 13.36894142 -4.56680826
H   4.55208448 13.39201141 -7.03301245
X   5.44460977 11.44342834 -7.14551926
C   5.89402023 10.34050218 -6.42903179
C   5.80079501 10.32748821 -5.04247079
X   5.25812393 11.41740074 -4.37217647
C   4.80874328 12.52032289 -5.08856857
C   4.90193869 12.53334087 -6.47522494
H   3.54222254 10.45026043 18.75288791
H   3.37684456 10.42137247 21.21902948
H   7.15949827 12.40790915 21.49584997
H   7.32477567 12.43670791 19.02966450
X   5.44378091 11.44531676 18.73770996
C   4.33389689 10.87875980 19.35329166
C   4.24093334 10.86252058 20.73983620
X   5.25784016 11.41285633 21.51102151
C   6.36771694 11.97937594 20.89553230
C   6.46068774 11.99565250 19.50889527
H   3.64144528 8.51427995 7.12473728
H   3.47770089 8.54291025 4.65848370
H   7.06447834 6.21993122 4.39348817
H   7.22813067 6.19139912 6.85978511
X   5.44496507 7.35102460 7.14583462
C   4.39060325 8.01209036 6.52689733
C   4.29855786 8.02818316 5.14028982
X   5.26085892 7.38319215 4.37239727
C   6.31521683 6.72216367 4.99124185
C   6.40726612 6.70603359 6.37794207
H   2.77168974 1.05972190 17.32929686
H   2.60631176 1.03083395 19.79543843
H   6.38896547 3.01737063 20.07225892
H   6.55424287 3.04616939 17.60607345
X   4.67324811 2.05477824 17.31411891
C   3.56336409 1.48822128 17.92970061
C   3.47040054 1.47198206 19.31624515
X   4.48730736 2.02231780 20.08743047
C   5.59718414 2.58883741 19.47194125
C   5.69015494 2.60511398 18.08530422
H   9.46923699 1.78135441 11.43545508
H   11.45800056 2.66930246 10.26652123
H   9.38618592 6.34366928 9.53300964
H   7.39744692 5.45558254 10.70195615
X   8.30951478 3.56319117 11.14152673
C   9.45112598 2.77992806 11.01908109
C   10.56926226 3.27917275 10.36186142
X   10.54596740 4.56177617 9.82699553
C   9.40442888 5.34504592 9.94937281
C   8.28621992 4.84579459 10.60666085
H   4.57009373 -2.84360909 22.73874501
H   3.53186981 -0.76946844 21.88430352
H   6.92331881 1.47762772 23.21849213
H   7.96143851 -0.59660853 24.07293245
X   6.33043347 -1.84926931 23.45901171
C   5.08512639 -1.89779015 22.84368565
C   4.50141430 -0.73163273 22.36330167
X   5.16293205 0.48323545 22.49815448
C   6.40817192 0.53182969 23.11347079
C   6.99195123 -0.63440113 23.59386451
H   2.86975733 17.91434485 8.54825999
H   2.70601295 17.94297516 6.08200641
H   6.29279040 15.61999612 5.81701088
H   6.45644273 15.59146403 8.28330782
X   4.67327712 16.75108951 8.56935733
C   3.61891530 17.41215526 7.95042004
C   3.52686992 17.42824807 6.56381253
X   4.48917097 16.78325706 5.79591997
C   5.54352889 16.12222858 6.41476456
C   5.63557817 16.10609849 7.80146477
H   9.63637249 16.74066031 13.95756537
H   11.62322585 15.84611991 15.12471996
H   9.21903694 12.74754021 16.84230732
H   7.23222317 13.64220846 15.67510701
X   8.31058397 15.24711410 14.74362914
C   9.54509169 15.86665444 14.58893389
C   10.66215357 15.36370681 15.24515653
X   10.54488417 14.24112016 16.05616996
C   9.31045511 13.62157753 16.21092692
C   8.19331458 14.12452744 15.55464257
H   4.25142335 20.64035198 0.91721538
H   3.24644412 18.73450139 2.12873876
H   7.09696126 17.69327932 3.68463112
H   8.10184052 19.59917155 2.47301680
X   6.23920669 20.23845995 1.61970518
C   4.87418174 19.99531397 1.52297325
C   4.30916613 18.92377663 2.20413169
X   5.10909170 18.09522142 2.98214906
C   6.47406789 18.33828126 3.07889515
C   7.03913227 19.40990474 2.39772256
H   7.20594142 1.96452000 3.63691074
H   6.20054415 0.05883312 4.84834480
H   4.15544365 -1.13056051 1.27982502
H   5.16089465 0.77520915 0.06849225
X   6.24605220 1.48850905 1.77725540
C   6.53829853 1.28703883 3.12104556
C   5.97301978 0.21559970 3.80214014
X   5.11541281 -0.65455397 3.13954027
C   4.82311243 -0.45313253 1.79581866
C   5.38844523 0.61835539 1.11465553
H   6.08239519 6.20274410 -4.39334094
H   5.91865081 6.23137441 -6.85959452
H   9.50542825 3.90839537 -7.12459005
H   9.66908058 3.87986327 -4.65829311
X   7.88591498 5.03948876 -4.37224360
C   6.83155316 5.70055451 -4.99118089
C   6.73950778 5.71664732 -6.37778840
X   7.70180883 5.07165631 -7.14568095
C   8.75616675 4.41062783 -6.52683637
C   8.84821603 4.39449774 -5.14013615
H   4.54258260 16.18346785 23.43890158
H   3.53595566 18.08843330 22.22735403
H   6.81528111 20.57379384 23.41075351
H   7.82180513 18.66873163 24.62230794
X   6.24489569 17.30746930 24.10601672
C   5.03999387 17.14439860 23.43267452
C   4.47404586 18.21544194 22.75151323
X   5.11292597 19.44972913 22.74357333
C   6.31776051 19.61286965 23.41689109
C   6.88377580 18.54175648 24.09807682
H   8.03637221 11.69627669 30.27299233
H   8.00124356 11.53455616 32.73929544
H   7.54649285 15.78316113 33.01129599
H   7.58166742 15.94475526 30.54494912
X   7.81116992 13.83058360 30.25539441
C   7.92911124 12.59074768 30.87237650
C   7.90936480 12.49984018 32.25901185
X   7.77165517 13.64876278 33.02888758
C   7.65374586 14.88857830 32.41199801
C   7.67346029 14.97950619 31.02527013
H   -1.40827452 4.47534382 -1.15435414
H   0.57971676 5.36630800 0.01359796
H   2.41976381 6.20691618 -3.75986616
H   0.43169926 5.31588419 -4.92771809
X   -0.61209377 4.84016844 -3.11376501
C   -0.57041348 4.85438769 -1.72458153
C   0.54730801 5.35531409 -1.06793617
X   1.62352560 5.84211971 -1.80037844
C   1.58192561 5.82790172 -3.18950233
C   0.46412382 5.32697406 -3.84620727
H   -1.30169817 14.53884356 27.05110039
H   0.68571082 13.64521282 25.88419498
H   2.31058531 12.36445926 29.63264531
H   0.32311124 13.25817062 30.79945447
X   -0.61306519 13.95411965 28.99793739
C   -0.51106053 14.06288442 27.61607798
C   0.60633302 13.56045693 26.96002158
X   1.62189689 12.94916539 27.68572701
C   1.51997490 12.84040017 29.06753016
C   0.40249868 13.34282810 29.72364282
H   5.78598710 5.92293180 18.97314356
H   5.82309466 5.76006013 21.43934194
H   9.80206059 4.18766759 21.27551732
H   9.76481720 4.35056133 18.80928632
X   7.77310649 5.14692276 18.73764789
C   6.66498524 5.54317680 19.47712080
C   6.68586145 5.45159374 20.86369515
X   7.81487870 4.96375444 21.51101931
C   8.92297318 4.56747144 20.77163829
C   8.90212374 4.65908346 19.38497205
H   7.20592628 1.96459589 29.52037405
H   6.20052902 0.05890900 30.73180810
H   4.15542851 -1.13048463 27.16328832
H   5.16087951 0.77528504 25.95195556
X   6.24603707 1.48858494 27.66071871
C   6.53828339 1.28711472 29.00450887
C   5.97300465 0.21567558 29.68560345
X   5.11539768 -0.65447808 29.02300358
C   4.82309730 -0.45305664 27.67928196
C   5.38843010 0.61843128 26.99811884
H   10.59920580 1.64445675 14.90430383
H   8.61086054 2.53386528 16.07283889
H   10.27021853 6.47675176 15.89506384
H   12.25855537 5.58720298 14.72654496
X   11.55267762 3.56045359 14.74262723
C   10.52713119 2.70211068 15.12114028
C   9.40922912 3.20217879 15.77813234
X   9.31669056 4.56068239 16.05670060
C   10.34216940 5.41903774 15.67826019
C   11.46013907 4.91895719 15.02119550
H   6.93066392 15.76951248 4.64107374
H   6.89177923 15.60607635 7.10720740
H   8.66171269 11.71431493 6.87708718
H   8.70051430 11.87786148 4.41092341
X   7.81804505 13.83387830 4.37243500
C   7.30956908 14.88198127 5.13052636
C   7.28770840 14.79007493 6.51706415
X   7.77434069 13.65004846 7.14573288
C   8.28277905 12.60194244 6.38773413
C   8.30467733 12.69385183 5.00110373
H   4.54597084 16.18527818 -2.44408569
H   3.53934390 18.09024363 -3.65563324
H   6.81866934 20.57560417 -2.47223376
H   7.82519337 18.67054196 -1.26067933
X   6.24828393 17.30927962 -1.77697055
C   5.04338211 17.14620892 -2.45031274
C   4.47743410 18.21725227 -3.13147404
X   5.11631421 19.45153946 -3.13941394
C   6.32114875 19.61467998 -2.46609618
C   6.88716404 18.54356681 -1.78491045
H   10.27533041 16.84996690 11.76362287
H   8.28783127 15.95789362 10.59567980
H   10.59778703 12.63178701 9.20551941
H   12.58525121 13.52399292 10.37349695
X   11.55404286 15.24250860 11.14131745
C   10.34584317 15.92670621 11.20374582
C   9.22841815 15.42514440 10.54708093
X   9.31901515 14.23928720 9.82789348
C   10.52713823 13.55508607 9.76540092
C   11.64463985 14.05665140 10.42213000
H   13.75006957 3.63037532 4.63986658
H   13.71267327 3.79304463 7.10607395
H   10.38914978 6.48259401 6.87816501
H   10.42666976 6.31986311 4.41192745
X   12.09067372 4.96496167 4.37232885
C   13.01445114 4.25460003 5.12981931
C   12.99341662 4.34607273 6.51639856
X   12.04858189 5.14791472 7.14570965
C   11.12483679 5.85829586 6.38831180
C   11.14583900 5.76680366 5.00163995
H   12.91906953 11.70454937 19.00907053
H   12.95649361 11.86984503 21.47510285
H   11.22001718 15.77632244 21.23949612
H   11.18267527 15.61091564 18.77343388
X   12.04850729 13.64742569 18.73769492
C   12.54716711 12.59570878 19.49730014
C   12.56820674 12.68866062 20.88378093
X   12.09056944 13.83334687 21.51087877
C   11.59194715 14.88506659 20.75136621
C   11.57087000 14.79211194 19.36479276
H   11.74141883 0.49167776 -2.07712255
H   12.74507049 -1.41316477 -3.29132883
H   16.62391423 0.34211162 -2.83855654
H   15.62012359 2.24694271 -1.62437383
X   13.61827992 1.48790622 -1.77510761
C   12.81006160 0.45887287 -2.24376920
C   13.37436076 -0.61208072 -2.92643792
X   14.74698044 -0.65417679 -3.14053800
C   15.55521672 0.37479290 -2.67195141
C   14.99089960 1.44581014 -1.98920769
H   16.12248418 19.57124622 27.37865767
H   15.11701825 17.66568052 26.16708999
H   12.24262857 17.18793813 29.30413842
H   13.24821799 19.09352674 30.51564111
X   14.74793695 19.45106854 29.02257645
C   15.27326381 19.04959869 27.80002838
C   14.70795137 17.97822347 27.11886122
X   13.61720339 17.30815635 27.66013249
C   13.09187013 17.70953651 28.88263681
C   13.65718896 18.78100143 29.56384772
H   16.24695278 0.09966868 5.99053645
H   16.08114271 0.07649078 8.45670928
H   14.31658704 3.97662288 8.37461434
H   14.48248296 3.99969286 5.90841015
X   15.37500825 2.05110979 5.79590334
C   15.82441871 0.94818364 6.51239081
C   15.73119349 0.93516966 7.89895181
X   15.18852240 2.02508220 8.56924613
C   14.73914175 3.12800435 7.85285403
C   14.83233717 3.14102232 6.46619766
H   13.27562385 17.63452942 17.54962278
H   13.31273141 17.47165775 20.01582116
H   17.29169734 15.89926521 19.85199654
H   17.25445395 16.06215894 17.38576554
X   15.26274324 16.85852037 17.31412711
C   14.15462199 17.25477441 18.05360002
C   14.17549820 17.16319135 19.44017437
X   15.30451545 16.67535206 20.08749853
C   16.41260993 16.27906905 19.34811752
C   16.39176049 16.37068108 17.96145127
H   11.74231590 0.49243432 23.80538520
H   12.74596757 -1.41240821 22.59117893
H   16.62481130 0.34286818 23.04395122
H   15.62102066 2.24769927 24.25813392
X   13.61917699 1.48866277 24.10740015
C   12.81095867 0.45962943 23.63873855
C   13.37525784 -0.61132416 22.95606983
X   14.74787751 -0.65342023 22.74196975
C   15.55611379 0.37554946 23.21055634
C   14.99179667 1.44656670 23.89330006
H   12.91936593 3.01984684 30.52698940
H   12.95679002 3.18514251 32.99302172
H   11.22031358 7.09161992 32.75741498
H   11.18297168 6.92621312 30.29135275
X   12.04880369 4.96272317 30.25561379
C   12.54746351 3.91100625 31.01521900
C   12.56850314 4.00395810 32.40169980
X   12.09086584 5.14864435 33.02879764
C   11.59224355 6.20036406 32.26928508
C   11.57116640 6.10740941 30.88271163
H   16.12286836 19.57092949 1.49568460
H   15.11740244 17.66536379 0.28411693
H   12.24301276 17.18762139 3.42116536
H   13.24860218 19.09321001 4.63266804
X   14.74832114 19.45075181 3.13960339
C   15.27364800 19.04928196 1.91705531
C   14.70833556 17.97790674 1.23588816
X   13.61758757 17.30783962 1.77715943
C   13.09225432 17.70921978 2.99966375
C   13.65757315 18.78068469 3.68087466
H   13.74951755 12.31491151 -6.87813875
H   13.71212125 12.47758083 -4.41193137
H   10.38859777 15.16713021 -4.63984032
H   10.42611775 15.00439931 -7.10607788
X   12.09012171 13.64949786 -7.14567648
C   13.01389912 12.93913623 -6.38818602
C   12.99286461 13.03060893 -5.00160677
X   12.04802988 13.83245092 -4.37229567
C   11.12428477 14.54283206 -5.12969353
C   11.14528698 14.45133986 -6.51636538
H   15.35993506 5.33132480 19.00897644
H   15.39735915 5.49662046 21.47500876
H   13.66088271 9.40309787 21.23940202
H   13.62354081 9.23769107 18.77333978
X   14.48937282 7.27420112 18.73760082
C   14.98803264 6.22248421 19.49720604
C   15.00907227 6.31543605 20.88368684
X   14.53143497 7.46012230 21.51078468
C   14.03281268 8.51184202 20.75127211
C   14.01173553 8.41888737 19.36469866
H   19.56742517 7.34044854 26.89803970
H   21.55427852 6.44590813 28.06519429
H   19.15008962 3.34732844 29.78278164
H   17.16327585 4.24199668 28.61558134
X   18.24163665 5.84690232 27.68410346
C   19.47614437 6.46644266 27.52940821
C   20.59320625 5.96349504 28.18563086
X   20.47593685 4.84090838 28.99664429
C   19.24150779 4.22136575 29.15140125
C   18.12436726 4.72431567 28.49511690
H   14.18895484 11.28899417 14.01614947
H   13.18397561 9.38314358 15.22767284
H   17.03449275 8.34192151 16.78356521
H   18.03937201 10.24781373 15.57195088
X   16.17673818 10.88710214 14.71863927
C   14.81171323 10.64395615 14.62190734
C   14.24669762 9.57241882 15.30306577
X   15.04662319 8.74386361 16.08108315
C   16.41159938 8.98692345 16.17782924
C   16.97666376 10.05854693 15.49665664
H   12.70213566 10.45118056 4.38751028
H   12.53675768 10.42229261 6.85365185
H   16.31941139 12.40882929 7.13047235
H   16.48468879 12.43762805 4.66428687
X   14.60369404 11.44623690 4.37233233
C   13.49381001 10.87967994 4.98791403
C   13.40084646 10.86344072 6.37445858
X   14.41775329 11.41377646 7.14564389
C   15.52763006 11.98029607 6.53015467
C   15.62060086 11.99657264 5.14351765
H   19.39917416 11.17321138 -1.50651801
H   21.38793772 12.06115943 -2.67545186
H   19.31612308 15.73552626 -3.40896345
H   17.32738409 14.84743951 -2.24001694
X   18.23945195 12.95504814 -1.80044636
C   19.38106314 12.17178504 -1.92289200
C   20.49919943 12.67102972 -2.58011168
X   20.47590457 13.95363315 -3.11497756
C   19.33436605 14.73690289 -2.99260028
C   18.21615709 14.23765156 -2.33531224
H   16.88779611 10.12445944 8.69981643
H   17.89416761 8.21927785 9.91123631
H   14.33914720 7.83939243 12.26685590
H   13.33288350 9.74463345 11.05536640
X   15.04765818 10.05315754 9.80213224
C   16.32999366 9.62426017 9.48052236
C   16.89579632 8.55310857 10.16163419
X   16.17933855 7.91067064 11.16445894
C   14.89706779 8.33951772 11.48612610
C   14.33120041 9.41071961 10.80495699
H   19.35330546 5.83493421 17.58615041
H   19.31480727 5.67154353 20.05229314
H   16.10124322 2.85228236 19.81522921
H   16.13982109 3.01578664 17.34905912
X   17.74898429 4.43550578 17.31403760
C   18.64156698 5.18209741 18.07408184
C   18.61990588 5.09022746 19.46062518
X   17.70566230 4.25173090 20.08734512
C   16.81307060 3.50516852 19.32739607
C   16.83474071 3.59700922 17.94075754
H   16.01384607 15.60132909 8.54828091
H   15.85010168 15.62995940 6.08202733
H   19.43687913 13.30698036 5.81703180
H   19.60053146 13.27844826 8.28332874
X   17.81736585 14.43807374 8.56937825
C   16.76300403 15.09913950 7.95044096
C   16.67095865 15.11523231 6.56383345
X   17.63325970 14.47024129 5.79594089
C   18.68761762 13.80921282 6.41478548
C   18.77966691 13.79308273 7.80148570
H   16.50107002 -0.55288307 3.13345015
H   15.50752679 -2.39566667 1.81927395
H   11.86041669 -0.18022839 1.47020684
H   12.85407721 1.66250000 2.78443957
X   14.73945258 0.66957418 3.04074638
C   15.48537783 -0.47135150 2.76935316
C   14.92676020 -1.50741707 2.03048497
X   13.62212468 -1.40270999 1.56287586
C   12.87616648 -0.26187626 1.83424764
C   13.43481706 0.77428126 2.57313726
H   16.46980342 18.94785416 23.54096850
H   15.43612001 21.02387753 24.39634222
H   11.77507425 20.01578047 22.41848707
H   12.80889617 17.93977355 21.56313668
X   14.70370423 18.31452219 22.49881881
C   15.44224757 19.18161974 23.29535236
C   14.86106553 20.34882518 23.77625839
X   13.54123248 20.64910890 23.46071740
C   12.80267504 19.78210926 22.66419846
C   13.38387118 18.61480590 22.18327782
H   20.39738333 3.01669839 22.66553556
H   22.52411841 3.97636227 23.48167388
H   20.83001513 7.90321318 23.27849240
H   18.70331181 6.94341607 22.46231885
X   19.41790418 4.92029721 22.51314185
C   20.49211305 4.08621084 22.79975202
C   21.68782662 4.62578006 23.25860474
X   21.80951298 5.99953031 23.43093697
C   20.73540147 6.83363942 23.14432859
C   19.53959054 6.29404746 22.68547408
H   20.56064626 11.16496227 1.83200599
H   18.57230099 12.05437081 3.00054105
H   20.23165899 15.99725729 2.82276600
H   22.21999582 15.10770851 1.65424712
X   21.51411808 13.08095911 1.67032939
C   20.48857164 12.22261621 2.04884244
C   19.37066957 12.72268432 2.70583450
X   19.27813102 14.08118792 2.98440276
C   20.30360985 14.93954326 2.60596235
C   21.42157952 14.43946272 1.94889766
H   19.56807782 7.34241903 1.01559416
H   21.55493117 6.44787863 2.18274875
H   19.15074227 3.34929894 3.90033610
H   17.16392850 4.24396718 2.73313580
X   18.24228930 5.84887282 1.80165792
C   19.47679702 6.46841316 1.64696267
C   20.59385889 5.96546554 2.30318531
X   20.47658950 4.84287888 3.11419875
C   19.24216044 4.22333625 3.26895570
C   18.12501990 4.72628616 2.61267135
H   12.80119673 8.51657500 -4.39344813
H   12.63745234 8.54520530 -6.85970170
H   16.22422979 6.22222626 -7.12469724
H   16.38788212 6.19369417 -4.65840029
X   14.60471652 7.35331965 -4.37235078
C   13.55035470 8.01438541 -4.99128808
C   13.45830931 8.03047821 -6.37789558
X   14.42061037 7.38548720 -7.14578814
C   15.47496828 6.72445872 -6.52694355
C   15.56701757 6.70832864 -5.14024334
H   19.40067810 11.17068018 24.37736839
H   21.38944167 12.05862823 23.20843454
H   19.31762703 15.73299505 22.47492296
H   17.32888803 14.84490830 23.64386946
X   18.24095589 12.95251694 24.08344004
C   19.38256709 12.16925383 23.96099441
C   20.50070337 12.66849852 23.30377473
X   20.47740851 13.95110194 22.76890885
C   19.33586999 14.73437169 22.89128612
C   18.21766103 14.23512036 23.54857416
H   12.70315040 10.44813612 30.27099826
H   12.53777241 10.41924816 32.73713983
H   16.32042613 12.40578484 33.01396033
H   16.48570353 12.43458360 30.54777485
X   14.60470877 11.44319245 30.25582031
C   13.49482475 10.87663549 30.87140201
C   13.40186120 10.86039627 32.25794656
X   14.41876802 11.41073202 33.02913187
C   15.52864479 11.97725163 32.41364265
C   15.62161559 11.99352819 31.02700563
