12
generated by MOF_BUILD
C      40.471  36.714   0.957
C      38.968  31.359   1.912
C      40.098  35.386   1.194
C      39.341  32.688   1.675
C      38.987  29.411   3.734
C      39.229  28.076   9.559
C      39.050  29.061   5.262
C      39.165  28.426   8.031
C      37.129  29.430   1.821
C      31.020  28.223   0.857
C      32.696  28.554   1.122
C      35.453  29.099   1.556
