14
Structure: SimpleCubic, Formula: C6Zn8
Zn      2.000000     2.000000     2.000000
Zn      8.000000     2.000000     2.000000
Zn      2.000000     8.000000     2.000000
Zn      8.000000     8.000000     2.000000
Zn      2.000000     2.000000     8.000000
Zn      8.000000     2.000000     8.000000
Zn      2.000000     8.000000     8.000000
Zn      8.000000     8.000000     8.000000
C       5.000000     5.000000     2.000000
C       5.000000     5.000000     8.000000
C       5.000000     2.000000     5.000000
C       5.000000     8.000000     5.000000
C       2.000000     5.000000     5.000000
C       8.000000     5.000000     5.000000
