69

C              1.413040000000        -0.208460000000         0.029770000000
C              0.877330000000         1.087990000000         0.121060000000
C             -0.506990000000         1.317040000000         0.183290000000
C             -1.366210000000         0.209980000000         0.107630000000
C             -0.875060000000        -1.101480000000         0.014000000000
C              0.516860000000        -1.288000000000        -0.033030000000
C             -1.792250000000        -2.248930000000         0.063930000000
C             -2.827460000000        -2.406950000000        -0.864960000000
C             -3.715130000000        -3.486320000000        -0.774030000000
C             -3.594060000000        -4.448250000000         0.243560000000
C             -2.557820000000        -4.287680000000         1.170870000000
C             -1.674810000000        -3.206070000000         1.082160000000
C             -4.588620000000        -5.600660000000         0.300340000000
C             -4.436670000000        -6.514090000000        -0.922060000000
C             -4.527580000000        -6.454080000000         1.574030000000
C             -1.032720000000         2.668450000000         0.434170000000
C             -0.678960000000         3.763430000000        -0.361950000000
C             -1.144810000000         5.050410000000        -0.061940000000
C             -1.986770000000         5.283900000000         1.039150000000
C             -2.347860000000         4.185850000000         1.827000000000
C             -1.876310000000         2.902840000000         1.530440000000
C             -2.449180000000         6.704400000000         1.336260000000
C             -3.364660000000         7.226580000000         0.223080000000
C             -3.146570000000         6.892460000000         2.690220000000
C              2.868500000000        -0.433430000000         0.094590000000
C              3.639770000000         0.170370000000         1.097900000000
C              5.013960000000        -0.066080000000         1.199460000000
C              5.669750000000        -0.930910000000         0.310190000000
C              4.904850000000        -1.524660000000        -0.702040000000
C              3.527960000000        -1.277670000000        -0.809120000000
C              7.162910000000        -1.172930000000         0.489870000000
C              7.448140000000        -1.866400000000         1.829410000000
C              7.838290000000        -1.964990000000        -0.635570000000
H              1.555530000000         1.937170000000         0.193670000000
H             -2.442590000000         0.368130000000         0.171380000000
H              0.909560000000        -2.303680000000        -0.076430000000
H             -2.951930000000        -1.688120000000        -1.672340000000
H             -4.511200000000        -3.568200000000        -1.511780000000
H             -2.414610000000        -4.989310000000         1.987930000000
H             -0.896170000000        -3.104230000000         1.836360000000
H             -5.592880000000        -5.155730000000         0.273280000000
H             -3.426930000000        -6.935660000000        -0.980420000000
H             -4.625350000000        -5.972740000000        -1.855230000000
H             -5.149950000000        -7.344470000000        -0.879060000000
H             -3.571930000000        -6.983740000000         1.660640000000
H             -5.321520000000        -7.209100000000         1.571100000000
H             -4.662010000000        -5.839850000000         2.471110000000
H             -0.031180000000         3.626300000000        -1.225590000000
H             -0.835490000000         5.876880000000        -0.698570000000
H             -2.990170000000         4.297080000000         2.696120000000
H             -2.156760000000         2.081250000000         2.187110000000
H             -1.548170000000         7.332620000000         1.362600000000
H             -4.252680000000         6.594850000000         0.109180000000
H             -2.848910000000         7.252800000000        -0.742720000000
H             -3.698680000000         8.247000000000         0.440540000000
H             -4.093320000000         6.342190000000         2.737420000000
H             -3.373120000000         7.950090000000         2.864290000000
H             -2.511050000000         6.552770000000         3.515470000000
H              3.169650000000         0.821140000000         1.833140000000
H              5.567310000000         0.426800000000         1.996010000000
H              5.355240000000        -2.195390000000        -1.429020000000
H              2.972910000000        -1.756520000000        -1.613370000000
H              7.644010000000        -0.185260000000         0.507980000000
H              6.939860000000        -2.835170000000         1.892070000000
H              7.112920000000        -1.260890000000         2.678380000000
H              8.522480000000        -2.036600000000         1.959500000000
H              7.452610000000        -2.988950000000        -0.696590000000
H              8.918760000000        -2.030120000000        -0.465150000000
H              7.687790000000        -1.482160000000        -1.607050000000
