52
generated by MOF_BUILD
C       9.243  37.326  27.922
C       8.271  37.304  28.938
C       8.224  38.300  29.939
C       9.192  39.319  29.870
C       9.142  40.318  30.861
C      10.118  41.337  30.791
C      11.097  41.352  29.781
C      11.152  40.351  28.787
C      10.177  39.338  28.850
C      10.223  38.342  27.855
C      11.266  38.372  26.766
O      11.195  37.530  25.864
N      12.221  39.342  26.801
C      12.216  40.353  27.717
O      13.044  41.267  27.722
C      13.278  39.312  25.831
C      13.017  39.514  24.453
C      14.073  39.551  23.525
C       4.268  39.354  35.085
C      15.667  39.136  25.316
C      14.615  39.116  26.249
C       8.091  40.300  31.943
O       8.095  41.213  32.773
N       7.181  39.284  31.951
C       7.201  38.267  31.047
O       6.440  37.295  31.111
C       6.182  39.278  32.982
C       5.210  40.304  33.033
C       4.263  40.339  34.075
C       5.238  38.327  35.035
C       6.173  38.279  33.985
H      14.848  38.968  27.295
H       5.194  41.086  32.287
C      15.408  39.354  23.945
H      16.684  38.993  25.656
H       3.534  41.139  34.104
H       5.293  37.565  35.796
O       7.052  37.237  33.949
H       6.984  36.769  33.126
H      10.119  42.126  31.530
H      11.827  42.152  29.774
H       9.239  36.540  27.178
H       7.548  36.500  28.950
O      11.743  39.651  23.990
H      11.207  38.914  24.260
H      13.831  39.743  22.490
C       3.179  39.354  36.174
O       1.973  39.354  35.824
O       3.529  39.354  37.381
C      16.497  39.354  22.856
O      17.704  39.354  23.206
O      16.147  39.354  21.650
