52
generated by MOF_BUILD
C      -1.833   8.085  28.761
C      -1.859   9.100  27.786
C      -0.948  10.179  27.818
C      -0.010  10.191  28.867
C       0.904  11.262  28.897
C       1.842  11.272  29.953
C       1.858  10.264  30.933
C       0.942   9.191  30.909
C       0.012   9.173  29.853
C      -0.900   8.099  29.821
C      -0.866   7.013  30.866
O      -1.622   6.045  30.729
N       0.015   7.125  31.898
C       0.944   8.120  31.973
O       1.784   8.199  32.874
C      -0.021   6.151  32.952
C       0.314   4.796  32.714
C       0.341   3.870  33.772
C      -0.000  15.408  23.945
C      -0.350   5.615  35.320
C      -0.361   6.548  34.267
C       0.883  12.342  27.843
O       1.722  13.244  27.920
N      -0.051  12.269  26.853
C      -0.988  11.284  26.792
O      -1.896  11.271  25.953
C      -0.059  13.300  25.853
C       1.035  13.439  24.969
C       1.063  14.483  24.024
C      -1.096  15.270  24.827
C      -1.134  14.217  25.759
H      -0.613   7.577  34.484
H       1.875  12.760  25.021
C       0.000   4.268  35.085
H      -0.605   5.940  36.321
H       1.914  14.581  23.364
H      -1.920  15.966  24.817
O      -2.238  14.092  26.549
H      -2.629  13.233  26.445
H       2.564  12.074  30.016
H       2.593  10.321  31.726
H      -2.552   7.279  28.693
H      -2.598   9.048  26.999
O       0.594   4.350  31.456
H      -0.116   4.560  30.861
H       0.637   2.856  33.551
C       0.000  16.497  22.856
O       0.000  16.147  21.650
O       0.000  17.704  23.206
C       0.000   3.179  36.174
O       0.000   3.529  37.381
O       0.000   1.973  35.824
