272
generated by MOF_BUILD
O      -1.112   1.940  10.948
O      -1.112  -1.940  10.948
O      -1.112  -0.000  12.888
O      -1.112   0.000   9.008
O       1.112   0.000   9.008
O       1.112   0.000  12.888
O       1.112  -1.940  10.948
O       1.112   1.940  10.948
Cu     -1.315  -0.000  10.948
Cu      1.315   0.000  10.948
C       0.000   2.512  10.948
C       0.000  -2.512  10.948
C       0.000   0.000  13.460
C       0.000   0.000   8.436
O      -1.112   9.008  10.948
O      -1.112  12.888  10.948
O      -1.112  10.948   9.008
O      -1.112  10.948  12.888
O       1.112  10.948  12.888
O       1.112  10.948   9.008
O       1.112  12.888  10.948
O       1.112   9.008  10.948
Cu     -1.315  10.948  10.948
Cu      1.315  10.948  10.948
C       0.000   8.436  10.948
C       0.000  13.461  10.948
C       0.000  10.948   8.436
C       0.000  10.948  13.460
O       9.836  23.837  10.948
O       9.836  19.956  10.948
O       9.836  21.896  12.888
O       9.836  21.896   9.008
O      12.060  21.896   9.008
O      12.060  21.896  12.888
O      12.060  19.956  10.948
O      12.060  23.837  10.948
Cu      9.633  21.896  10.948
Cu     12.263  21.896  10.948
C      10.948  24.409  10.948
C      10.948  19.384  10.948
C      10.948  21.896  13.460
C      10.948  21.896   8.436
O       9.836   9.008  10.948
O       9.836  12.888  10.948
O       9.836  10.948   9.008
O       9.836  10.948  12.888
O      12.060  10.948  12.888
O      12.060  10.948   9.008
O      12.060  12.888  10.948
O      12.060   9.008  10.948
Cu      9.633  10.948  10.948
Cu     12.263  10.948  10.948
C      10.948   8.436  10.948
C      10.948  13.461  10.948
C      10.948  10.948   8.436
C      10.948  10.948  13.460
O      19.956  23.008  -0.000
O      23.837  23.008  -0.000
O      21.897  23.008  -1.940
O      21.896  23.008   1.940
O      21.896  20.784   1.940
O      21.896  20.784  -1.940
O      23.837  20.784   0.000
O      19.956  20.784   0.000
Cu     21.896  23.211  -0.000
Cu     21.896  20.581   0.000
C      19.384  21.896   0.000
C      24.409  21.896   0.000
C      21.896  21.896  -2.512
C      21.896  21.896   2.512
O      -1.940  12.060  -0.000
O       1.940  12.060  -0.000
O       0.000  12.060  -1.940
O      -0.000  12.060   1.940
O      -0.000   9.836   1.940
O       0.000   9.836  -1.940
O       1.940   9.836   0.000
O      -1.940   9.836   0.000
Cu      0.000  12.263  -0.000
Cu     -0.000   9.633   0.000
C      -2.512  10.948   0.000
C       2.512  10.948   0.000
C      -0.000  10.948  -2.512
C       0.000  10.948   2.512
O      12.888  23.008  -0.000
O       9.008  23.008   0.000
O      10.948  23.008   1.940
O      10.948  23.008  -1.940
O      10.948  20.784  -1.940
O      10.948  20.784   1.940
O       9.008  20.784   0.000
O      12.888  20.784  -0.000
Cu     10.948  23.211   0.000
Cu     10.948  20.581  -0.000
C      13.461  21.896   0.000
C       8.436  21.896   0.000
C      10.948  21.896   2.512
C      10.948  21.896  -2.512
O       9.008  12.060  21.896
O      12.889  12.060  21.896
O      10.948  12.060  19.956
O      10.948  12.060  23.836
O      10.948   9.836  23.837
O      10.948   9.836  19.956
O      12.889   9.836  21.896
O       9.008   9.836  21.896
Cu     10.948  12.263  21.896
Cu     10.948   9.633  21.896
C       8.436  10.948  21.896
C      13.461  10.948  21.896
C      10.948  10.948  19.384
C      10.948  10.948  24.408
C       1.180   4.774  10.712
C       0.000   4.052  10.948
C      -1.173   4.788  11.183
C      -1.180   6.174  11.184
C       0.000   6.896  10.948
C       1.174   6.161  10.713
F       2.341   6.784  10.479
H       2.111   4.253  10.525
H      -2.111   6.695  11.371
F      -2.341   4.165  11.417
C      -1.199  -6.174  10.848
C       0.000  -6.896  10.948
C       1.193  -6.161  11.048
C       1.199  -4.774  11.049
C       0.000  -4.052  10.948
C      -1.193  -4.787  10.848
F      -2.379  -4.164  10.749
H      -2.145  -6.695  10.768
H       2.145  -4.253  11.128
F       2.379  -6.784  11.147
C      -1.203   0.035  17.122
C       0.000   0.000  17.844
C       1.196  -0.034  17.109
C       1.203  -0.034  15.722
C       0.000   0.000  15.000
C      -1.196   0.034  15.735
F      -2.387   0.069  15.112
H      -2.152   0.062  17.643
H       2.152  -0.062  15.201
F       2.387  -0.069  17.732
C      -0.750  -0.941   4.774
C       0.000   0.000   4.052
C       0.746   0.936   4.787
C       0.750   0.941   6.174
C       0.000   0.000   6.896
C      -0.746  -0.936   6.161
F      -1.488  -1.867   6.784
H      -1.342  -1.683   4.253
H       1.342   1.683   6.695
F       1.488   1.867   4.164
C      -1.160  10.627  15.722
C       0.000  10.948  15.000
C       1.153  11.268  15.735
C       1.160  11.269  17.122
C       0.000  10.948  17.844
C      -1.153  10.629  17.109
F      -2.301  10.311  17.732
H      -2.075  10.374  15.201
H       2.075  11.523  17.643
F       2.301  11.586  15.113
C      -0.455   9.834   4.774
C       0.000  10.948   4.052
C       0.453  12.056   4.787
C       0.455  12.062   6.174
C       0.000  10.948   6.896
C      -0.453   9.840   6.161
F      -0.903   8.738   6.784
H      -0.814   8.955   4.253
H       0.814  12.941   6.695
F       0.903  13.159   4.164
C      10.883  26.670   9.747
C      10.948  25.949  10.948
C      11.014  26.684  12.143
C      11.014  28.071  12.150
C      10.948  28.792  10.948
C      10.883  28.057   9.753
F      10.818  28.680   8.564
H      10.831  26.149   8.798
H      11.066  28.592  13.098
F      11.079  26.061  13.332
C      12.084  17.122  11.345
C      10.948  17.844  10.948
C       9.818  17.109  10.553
C       9.812  15.722  10.551
C      10.948  15.001  10.948
C      12.078  15.736  11.343
F      13.202  15.113  11.736
H      12.981  17.643  11.658
H       8.916  15.201  10.238
F       8.694  17.732  10.160
C      11.926  21.195  15.722
C      10.948  21.896  15.000
C       9.976  22.594  15.735
C       9.970  22.598  17.122
C      10.948  21.896  17.844
C      11.921  21.199  17.109
F      12.889  20.505  17.732
H      12.698  20.642  15.201
H       9.199  23.151  17.643
F       9.008  23.288  15.112
C      10.882  20.695   6.174
C      10.948  21.896   6.896
C      11.013  23.091   6.161
C      11.014  23.098   4.774
C      10.948  21.896   4.052
C      10.883  20.701   4.787
F      10.818  19.512   4.164
H      10.831  19.747   6.695
H      11.066  24.046   4.253
F      11.079  24.281   6.784
C      11.818  11.780  15.722
C      10.948  10.948  15.000
C      10.083  10.121  15.735
C      10.078  10.117  17.122
C      10.948  10.948  17.844
C      11.813  11.775  17.109
F      12.674  12.598  17.732
H      12.505  12.436  15.201
H       9.392   9.461  17.643
F       9.222   9.298  15.112
C      11.012  12.150   6.174
C      10.948  10.948   6.896
C      10.885   9.753   6.161
C      10.885   9.747   4.774
C      10.948  10.948   4.052
C      11.011  12.143   4.787
F      11.074  13.333   4.164
H      11.062  13.098   6.695
H      10.835   8.798   4.253
F      10.822   8.564   6.784
C      28.071  22.731   0.866
C      28.792  21.896   0.000
C      28.057  21.066  -0.862
C      26.670  21.061  -0.866
C      25.949  21.896   0.000
C      26.684  22.727   0.862
F      26.061  23.553   1.719
H      28.592  23.390   1.550
H      26.149  20.402  -1.550
F      28.680  20.239  -1.719
C      17.122  20.712   0.214
C      17.844  21.896   0.000
C      17.109  23.074  -0.213
C      15.722  23.080  -0.214
C      15.001  21.896   0.000
C      15.736  20.719   0.213
F      15.113  19.547   0.425
H      17.643  19.778   0.383
H      15.201  24.015  -0.383
F      17.732  24.246  -0.425
C       6.174  10.931  -1.203
C       6.896  10.948  -0.000
C       6.161  10.965   1.197
C       4.774  10.965   1.203
C       4.052  10.948   0.000
C       4.787  10.932  -1.197
F       4.165  10.915  -2.388
H       6.695  10.918  -2.153
H       4.253  10.978   2.153
F       6.784  10.981   2.388
C      -4.774  12.117  -0.285
C      -4.052  10.948   0.000
C      -4.787   9.785   0.284
C      -6.174   9.779   0.285
C      -6.896  10.948  -0.000
C      -6.161  12.111  -0.284
F      -6.784  13.268  -0.566
H      -4.253  13.040  -0.511
H      -6.695   8.857   0.511
F      -4.165   8.629   0.566
