72
generated by MOF_BUILD
Cu     -1.315  -0.000  10.948
Cu      1.315   0.000  10.948
Cu     -1.315  10.948  10.948
Cu      1.315  10.948  10.948
Cu      9.633  21.896  10.948
Cu     12.263  21.896  10.948
Cu      9.633  10.948  10.948
Cu     12.263  10.948  10.948
O      -1.112   1.940  10.948
O       1.112   1.940  10.948
C       0.000   2.512  10.948
O      -1.112   9.008  10.948
O       1.112   9.008  10.948
C       0.000   8.436  10.948
C      -1.187   4.774  11.147
C       0.000   4.052  10.948
C       1.180   4.788  10.751
C       1.187   6.174  10.750
C       0.000   6.896  10.948
C      -1.180   6.161  11.146
F      -2.355   6.784  11.342
H      -2.123   4.253  11.303
H       2.123   6.695  10.593
F       2.355   4.165  10.554
O      -1.112  -9.008  10.948
O       1.112  -9.008  10.948
C       0.000  -8.436  10.948
O      -1.112  -1.940  10.948
O       1.112  -1.940  10.948
C       0.000  -2.512  10.948
C       1.199  -6.174  11.052
C       0.000  -6.896  10.948
C      -1.192  -6.161  10.844
C      -1.199  -4.774  10.844
C       0.000  -4.052  10.948
C       1.192  -4.787  11.052
F       2.379  -4.164  11.155
H       2.145  -6.695  11.134
H      -2.145  -4.253  10.762
F      -2.379  -6.784  10.741
O       0.000   1.112  19.956
O       0.000  -1.112  19.956
C       0.000   0.000  19.384
O      -1.112  -0.000  12.888
O       1.112   0.000  12.888
C       0.000   0.000  13.460
C      -1.200  -0.090  17.122
C       0.000   0.000  17.844
C       1.194   0.090  17.109
C       1.200   0.091  15.722
C       0.000   0.000  15.000
C      -1.193  -0.090  15.735
F      -2.381  -0.179  15.112
H      -2.147  -0.162  17.643
H       2.147   0.162  15.201
F       2.381   0.179  17.732
O      -0.000   1.112   1.940
O      -0.000  -1.112   1.940
C       0.000   0.000   2.512
O      -1.112   0.000   9.008
O       1.112   0.000   9.008
C       0.000   0.000   8.436
C       0.941  -0.750   4.774
C       0.000   0.000   4.052
C      -0.936   0.746   4.787
C      -0.941   0.750   6.174
C       0.000   0.000   6.896
C       0.936  -0.746   6.161
F       1.867  -1.488   6.784
H       1.683  -1.342   4.253
H      -1.683   1.342   6.695
F      -1.867   1.488   4.164
