272
generated by MOF_BUILD
O      20.906   1.908  11.000
O      20.907  20.092  11.000
O      20.907  22.000  12.908
O      20.906   0.000   9.092
O       1.093   0.000   9.092
O       1.094  22.000  12.908
O       1.094  20.092  11.000
O       1.093   1.908  11.000
Cu     20.707  22.000  11.000
Cu      1.293   0.000  11.000
C       0.000   2.471  11.000
C      22.000  19.529  11.000
C       0.000  22.000  13.471
C      22.000   0.000   8.529
O      20.906   9.092  11.000
O      20.907  12.908  11.000
O      20.907  11.000   9.092
O      20.906  11.000  12.908
O       1.093  11.000  12.908
O       1.094  11.000   9.092
O       1.094  12.908  11.000
O       1.093   9.092  11.000
Cu     20.707  11.000  11.000
Cu      1.293  11.000  11.000
C       0.000   8.529  11.000
C       0.000  13.471  11.000
C       0.000  11.000   8.529
C       0.000  11.000  13.471
O       9.906   1.908  11.000
O       9.907  20.092  11.000
O       9.907  22.000  12.908
O       9.906   0.000   9.092
O      12.093   0.000   9.092
O      12.094  22.000  12.908
O      12.094  20.092  11.000
O      12.093   1.908  11.000
Cu      9.707  22.000  11.000
Cu     12.293   0.000  11.000
C      11.000   2.471  11.000
C      11.000  19.529  11.000
C      11.000  22.000  13.471
C      11.000   0.000   8.529
O       9.906   9.092  11.000
O       9.907  12.908  11.000
O       9.907  11.000   9.092
O       9.906  11.000  12.908
O      12.093  11.000  12.908
O      12.094  11.000   9.092
O      12.094  12.908  11.000
O      12.093   9.092  11.000
Cu      9.707  11.000  11.000
Cu     12.293  11.000  11.000
C      11.000   8.529  11.000
C      11.000  13.471  11.000
C      11.000  11.000   8.529
C      11.000  11.000  13.471
O      20.092   1.094  22.000
O       1.908   1.093  22.000
O       0.000   1.093  20.092
O      22.000   1.094   1.908
O      22.000  20.907   1.908
O       0.000  20.906  20.092
O       1.908  20.906   0.000
O      20.092  20.907   0.000
Cu      0.000   1.293  22.000
Cu     22.000  20.707   0.000
C      19.529   0.000  22.000
C       2.471   0.000  22.000
C      22.000   0.000  19.529
C      22.000   0.000   2.471
O      20.092  12.094  22.000
O       1.908  12.093  22.000
O       0.000  12.093  20.092
O      22.000  12.094   1.908
O      22.000   9.907   1.908
O       0.000   9.906  20.092
O       1.908   9.906   0.000
O      20.092   9.907   0.000
Cu      0.000  12.293  22.000
Cu     22.000   9.707   0.000
C      19.529  11.000  22.000
C       2.471  11.000  22.000
C      22.000  11.000  19.529
C      22.000  11.000   2.471
O      12.908   1.094  22.000
O       9.092   1.093   0.000
O      11.000   1.093   1.908
O      11.000   1.094  20.092
O      11.000  20.907  20.092
O      11.000  20.906   1.908
O       9.092  20.906   0.000
O      12.908  20.907  22.000
Cu     11.000   1.293   0.000
Cu     11.000  20.707  22.000
C      13.471   0.000  22.000
C       8.529   0.000  22.000
C      11.000   0.000   2.471
C      11.000   0.000  19.529
O       9.092  12.094  22.000
O      12.908  12.093  22.000
O      11.000  12.093  20.092
O      11.000  12.094   1.908
O      11.000   9.907   1.908
O      11.000   9.906  20.092
O      12.908   9.906   0.000
O       9.092   9.907   0.000
Cu     11.000  12.293  22.000
Cu     11.000   9.707   0.000
C       8.529  11.000   0.000
C      13.471  11.000  22.000
C      11.000  11.000  19.529
C      11.000  11.000   2.471
C      17.257  10.682  20.727
C      18.015  11.000  22.000
C      17.257  11.318   1.273
C      15.743  11.318   1.273
C      14.985  11.000  22.000
C      15.743  10.682  20.727
H      17.818  10.446  19.786
H      17.818  11.554   2.214
H      15.182  11.554   2.214
H      15.182  10.446  19.786
C       4.743  12.157  21.383
C       3.985  11.000  22.000
C       4.743   9.843   0.617
C       6.257   9.843   0.617
C       7.015  11.000  22.000
C       6.257  12.157  21.383
H       4.182  13.014  20.926
H       4.182   8.986   1.074
H       6.818   8.986   1.074
H       6.818  13.014  20.926
C      17.257   1.173   0.587
C      18.015   0.000  22.000
C      17.257  20.827  21.413
C      15.743  20.827  21.413
C      14.985   0.000  22.000
C      15.743   1.173   0.587
H      17.818   2.042   1.021
H      17.818  19.958  20.979
H      15.182  19.958  20.979
H      15.182   2.042   1.021
C       4.743   1.312  22.000
C       3.985   0.000  22.000
C       4.743  20.688  22.000
C       6.257  20.688  22.000
C       7.015   0.000  22.000
C       6.257   1.312  22.000
H       4.182   2.283  22.000
H       4.182  19.717  22.000
H       6.818  19.717  22.000
H       6.818   2.283  22.000
C      11.950  11.904   6.257
C      11.000  11.000   7.015
C      10.050  10.096   6.257
C      10.050  10.096   4.743
C      11.000  11.000   3.985
C      11.950  11.904   4.743
H      12.654  12.574   6.818
H       9.346   9.427   6.818
H       9.346   9.426   4.182
H      12.654  12.573   4.182
C      10.845   9.698  17.257
C      11.000  11.000  18.015
C      11.155  12.302  17.257
C      11.155  12.302  15.743
C      11.000  11.000  14.985
C      10.845   9.698  15.743
H      10.730   8.733  17.818
H      11.270  13.267  17.818
H      11.270  13.267  15.182
H      10.730   8.733  15.182
C      12.002  21.153   6.257
C      11.000   0.000   7.015
C       9.998   0.847   6.257
C       9.998   0.847   4.743
C      11.000   0.000   3.985
C      12.002  21.153   4.743
H      12.743  20.527   6.818
H       9.257   1.473   6.818
H       9.257   1.473   4.182
H      12.743  20.527   4.182
C      12.222  21.525  17.257
C      11.000   0.000  18.015
C       9.778   0.475  17.257
C       9.778   0.475  15.743
C      11.000   0.000  14.985
C      12.222  21.525  15.743
H      13.127  21.173  17.818
H       8.873   0.827  17.818
H       8.873   0.827  15.182
H      13.127  21.173  15.182
C       9.764  17.257  11.438
C      11.000  18.015  11.000
C      12.236  17.257  10.562
C      12.236  15.743  10.562
C      11.000  14.985  11.000
C       9.764  15.743  11.438
H       8.849  17.818  11.763
H      13.151  17.818  10.237
H      13.151  15.182  10.237
H       8.849  15.182  11.763
C      12.276   4.743  10.698
C      11.000   3.985  11.000
C       9.724   4.743  11.302
C       9.724   6.257  11.302
C      11.000   7.015  11.000
C      12.276   6.257  10.698
H      13.221   4.182  10.474
H       8.779   4.182  11.526
H       8.779   6.818  11.526
H      13.221   6.818  10.474
C      21.245   9.928   6.257
C      22.000  11.000   7.015
C       0.755  12.072   6.257
C       0.755  12.072   4.743
C      22.000  11.000   3.985
C      21.245   9.928   4.743
H      20.686   9.134   6.818
H       1.314  12.866   6.818
H       1.314  12.866   4.182
H      20.686   9.134   4.182
C       0.896  11.958  15.743
C      22.000  11.000  14.985
C      21.104  10.042  15.743
C      21.104  10.042  17.257
C      22.000  11.000  18.015
C       0.896  11.958  17.257
H       1.558  12.668  15.182
H      20.442   9.332  15.182
H      20.442   9.332  17.818
H       1.558  12.668  17.818
C      20.712   0.250   6.257
C      22.000   0.000   7.015
C       1.288  21.750   6.257
C       1.288  21.750   4.743
C      22.000   0.000   3.985
C      20.712   0.250   4.743
H      19.759   0.435   6.818
H       2.241  21.565   6.818
H       2.241  21.565   4.182
H      19.759   0.435   4.182
C      21.792   1.295  15.743
C      22.000   0.000  14.985
C       0.208  20.705  15.743
C       0.208  20.705  17.257
C      22.000   0.000  18.015
C      21.792   1.295  17.257
H      21.638   2.254  15.182
H       0.362  19.746  15.182
H       0.362  19.746  17.818
H      21.638   2.254  17.818
C      20.731  17.257  11.333
C       0.000  18.015  11.000
C       1.269  17.257  10.667
C       1.269  15.743  10.667
C       0.000  14.985  11.000
C      20.731  15.743  11.333
H      19.792  17.818  11.580
H       2.208  17.818  10.420
H       2.208  15.182  10.420
H      19.792  15.182  11.580
C      20.688   4.743  11.000
C       0.000   3.985  11.000
C       1.312   4.743  11.000
C       1.312   6.257  11.000
C       0.000   7.015  11.000
C      20.688   6.257  11.000
H      19.717   4.182  11.000
H       2.283   4.182  11.000
H       2.283   6.818  11.000
H      19.717   6.818  11.000
